geometry optimzed in LAMMPS
_audit_creation_date              2020-11-30 
_audit_creation_method            'lammps2cif' 
_symmetry_space_group_name_H-M    'P1' 
_symmetry_Int_Tables_number       1 
_symmetry_cell_setting            triclinic 
loop_ 
_symmetry_equiv_pos_as_xyz 
  x,y,z 
_cell_length_a                    62.55460165 
_cell_length_b                    62.54504774274552 
_cell_length_c                    62.662501708558615 
_cell_angle_alpha                 89.94661884210915 
_cell_angle_beta                  90.00442992256995 
_cell_angle_gamma                 90.06322739855445 
loop_ 
_atom_site_label 
_atom_site_type_symbol 
_atom_site_fract_x 
_atom_site_fract_y 
_atom_site_fract_z 
_atom_site_charge 
Zn1        Zn  0.48465780  0.48930268  0.98076239     1.49700
Zn2        Zn  0.48597050  0.52524110  0.01666603     1.49400
Zn3        Zn  0.52080478  0.48733609  0.01649720     1.49100
Zn4        Zn  0.52248439  0.52368463  0.98074308     1.49500
O5          O  0.50350781  0.50644343  0.99873930    -1.84400
O6          O  0.45384902  0.49560188  0.98684308    -0.75000
O7          O  0.49069380  0.51843417  0.04787313    -0.74800
O8          O  0.51254176  0.45650085  0.01172393    -0.74300
O9          O  0.45432828  0.52187654  0.01060859    -0.75000
O10         O  0.48875320  0.45775183  0.98545641    -0.74600
O11         O  0.51607878  0.49356689  0.04764063    -0.75200
O12         O  0.55330413  0.51622543  0.98578964    -0.74600
O13         O  0.49364433  0.55618556  0.01158999    -0.75300
O14         O  0.55244494  0.49056498  0.01027214    -0.74700
O15         O  0.51928018  0.55503030  0.98708112    -0.75200
O16         O  0.51606925  0.51931915  0.94946493    -0.75100
O17         O  0.48961759  0.49562894  0.94985807    -0.74900
C18         C  0.44411726  0.50897525  0.99863705     0.76900
C19         C  0.50333285  0.50582498  0.05769021     0.77400
C20         C  0.49991618  0.44718361  0.99875791     0.76400
C21         C  0.56285474  0.50289638  0.99782662     0.76700
C22         C  0.50712152  0.56554816  0.99951450     0.77900
C23         C  0.50244813  0.50773666  0.93971991     0.76900
Zn24       Zn  0.47789544  0.97969722  0.48128893     1.49700
Zn25       Zn  0.51485146  0.01556392  0.48086414     1.49400
Zn26       Zn  0.47842869  0.01598313  0.51697233     1.49100
Zn27       Zn  0.51465782  0.97995615  0.51735280     1.49500
O28         O  0.49647138  0.99776846  0.49906285    -1.84400
O29         O  0.48277827  0.98560965  0.44986184    -0.75000
O30         O  0.50964318  0.04703871  0.48624228    -0.74800
O31         O  0.44698645  0.01132640  0.51129493    -0.74300
O32         O  0.50874864  0.00986125  0.44980357    -0.75000
O33         O  0.44648614  0.98493803  0.48764134    -0.74600
O34         O  0.48479566  0.04695419  0.51156115    -0.75200
O35         O  0.50988394  0.98654581  0.54861064    -0.74600
O36         O  0.54630600  0.00951508  0.48602223    -0.75300
O37         O  0.48363991  0.01043153  0.54824767    -0.74700
O38         O  0.54607802  0.98429082  0.51094325    -0.75200
O39         O  0.50826443  0.94876140  0.51251071    -0.75100
O40         O  0.48401535  0.94842128  0.48658772    -0.74900
C41         C  0.49565277  0.99784827  0.43985180     0.76900
C42         C  0.49731398  0.05697261  0.49902804     0.77400
C43         C  0.43672360  0.99823287  0.49957715     0.76400
C44         C  0.49680536  0.99869112  0.55839589     0.76700
C45         C  0.55621483  0.99658475  0.49825651     0.77900
C46         C  0.49620330  0.93861367  0.49962400     0.76900
Zn47       Zn  0.97987882  0.51338693  0.48174967     1.49700
Zn48       Zn  0.01601923  0.47769963  0.48206196     1.49400
Zn49       Zn  0.01557840  0.51369833  0.51855184     1.49100
Zn50       Zn  0.97924715  0.47758121  0.51811496     1.49500
O51         O  0.99773557  0.49555175  0.50017508    -1.84400
O52         O  0.98570613  0.50796305  0.45071013    -0.75000
O53         O  0.04721145  0.48356064  0.48802773    -0.74800
O54         O  0.00871516  0.54485918  0.51373917    -0.74300
O55         O  0.01127737  0.48345308  0.45049880    -0.75000
O56         O  0.98533391  0.54453374  0.48702859    -0.74600
O57         O  0.04715549  0.50959090  0.51213518    -0.75200
O58         O  0.98337542  0.48414514  0.54952943    -0.74600
O59         O  0.00991940  0.44645172  0.48740917    -0.75300
O60         O  0.01018955  0.50747669  0.54985578    -0.74700
O61         O  0.98547941  0.44631991  0.51317159    -0.75200
O62         O  0.94803328  0.48212781  0.51114677    -0.75100
O63         O  0.94857241  0.50785543  0.48672835    -0.74900
C64         C  0.99856516  0.49590648  0.44060290     0.76900
C65         C  0.05718422  0.49686195  0.49980069     0.77400
C66         C  0.99681838  0.55462371  0.50042414     0.76400
C67         C  0.99649998  0.49598143  0.55967149     0.76700
C68         C  0.99762312  0.43641261  0.50019331     0.77900
C69         C  0.93832795  0.49485098  0.49857321     0.76900
Zn70       Zn  0.02081576  0.01901986  0.01844387     1.49700
Zn71       Zn  0.02309812  0.98256191  0.98293484     1.49400
Zn72       Zn  0.98665397  0.98091077  0.01829044     1.49100
Zn73       Zn  0.98483254  0.01637734  0.98173238     1.49500
O74         O  0.00384364  0.99983095  0.00036818    -1.84400
O75         O  0.05247675  0.01491858  0.01341249    -0.75000
O76         O  0.01821710  0.95116811  0.98741462    -0.74800
O77         O  0.99217682  0.98653201  0.04919444    -0.74300
O78         O  0.05392796  0.98835190  0.98995758    -0.75000
O79         O  0.01551479  0.01329423  0.04987194    -0.74600
O80         O  0.99350486  0.95001106  0.01282072    -0.75200
O81         O  0.95374564  0.01154417  0.98972619    -0.74600
O82         O  0.01829185  0.98801762  0.95182043    -0.75300
O83         O  0.95510380  0.98561920  0.01391170    -0.74700
O84         O  0.98928747  0.00846471  0.95057534    -0.75200
O85         O  0.99061529  0.04803639  0.98497321    -0.75100
O86         O  0.01357940  0.04980371  0.01201976    -0.74900
C87         C  0.06314857  0.00178220  0.00212820     0.76900
C88         C  0.00622405  0.94066137  0.00002226     0.77400
C89         C  0.00371207  0.99973222  0.05947965     0.76400
C90         C  0.94445023  0.99873953  0.00258739     0.76700
C91         C  0.00384377  0.99766801  0.94125403     0.77900
C92         C  0.00184009  0.05887517  0.99806347     0.76900
C93         C  0.75735887  0.51627904  0.98669633     0.80000
N94         N  0.73563871  0.51558013  0.98590228    -0.78300
C95         C  0.72443508  0.50285702  0.99945810     0.82400
N96         N  0.73516089  0.49061705  0.01374824    -0.78300
C97         C  0.75684723  0.49077977  0.01451671     0.82500
N98         N  0.76794838  0.50372341  0.00098448    -0.80000
C99         C  0.24986585  0.51401797  0.01501417     0.80000
N100        N  0.23931316  0.50022459  0.00196013    -0.78300
C101        C  0.25025985  0.48804862  0.98766377     0.82400
N102        N  0.27191496  0.48990865  0.98645705    -0.78300
C103        C  0.28262907  0.50359542  0.99948696     0.82500
N104        N  0.27145768  0.51550252  0.01369394    -0.80000
C105        C  0.98105920  0.48717654  0.24699695     0.80000
N106        N  0.98154661  0.48727257  0.26870641    -0.78300
C107        C  0.99532961  0.50014142  0.27946153     0.82400
N108        N  0.00866807  0.51312890  0.26831764    -0.78300
C109        C  0.00837208  0.51337851  0.24662734     0.82500
N110        N  0.99457370  0.50028736  0.23601113    -0.80000
C111        C  0.01288197  0.25292643  0.98462472     0.80000
N112        N  0.01231091  0.23121232  0.98414730    -0.78300
C113        C  0.99811554  0.22019603  0.99634661     0.82400
N114        N  0.98441084  0.23112792  0.00915277    -0.78300
C115        C  0.98478104  0.25286030  0.00979753     0.82500
N116        N  0.99906820  0.26364906  0.99748051    -0.80000
C117        C  0.00859605  0.48574725  0.75341434     0.80000
N118        N  0.99701862  0.50062028  0.76420243    -0.78300
C119        C  0.98461010  0.51489103  0.75346958     0.82400
N120        N  0.98379561  0.51415905  0.73178544    -0.78300
C121        C  0.99523227  0.49932651  0.72082971     0.82500
N122        N  0.00759617  0.48525342  0.73177065    -0.80000
Zn123      Zn  0.12448740  0.34144542  0.84014844     1.49700
Zn124      Zn  0.15922361  0.38010608  0.84029487     1.49400
Zn125      Zn  0.16125721  0.34273444  0.87643393     1.49100
Zn126      Zn  0.17240959  0.33316582  0.82859107     1.49500
O127        O  0.15407258  0.34968924  0.84666627    -1.84400
O128        O  0.10854390  0.36694875  0.82861319    -0.75000
O129        O  0.17000710  0.39500973  0.86704498    -0.74800
O130        O  0.13511234  0.33147268  0.89163482    -0.74300
O131        O  0.13183714  0.39387076  0.82970368    -0.75000
O132        O  0.10967572  0.33077154  0.86680439    -0.74600
O133        O  0.17171646  0.36921725  0.89152768    -0.75200
O134        O  0.18836873  0.31137166  0.84483883    -0.74600
O135        O  0.18210423  0.38440947  0.81720320    -0.75300
O136        O  0.18417436  0.31954916  0.87898476    -0.74700
O137        O  0.19360701  0.35108805  0.81356124    -0.75200
O138        O  0.15629769  0.31755062  0.80636386    -0.75100
O139        O  0.12257660  0.31843709  0.81713494    -0.74900
C140        C  0.11329912  0.38650698  0.82534953     0.76900
C141        C  0.17448333  0.38862481  0.88589522     0.77400
C142        C  0.11597266  0.32745421  0.88588633     0.76400
C143        C  0.19239808  0.30801090  0.86439885     0.76700
C144        C  0.19505234  0.37086184  0.80924942     0.77900
C145        C  0.13692609  0.31189186  0.80428178     0.76900
C146        C  0.99213387  0.74744391  0.98834431     0.80000
N147        N  0.99303037  0.76912916  0.98810335    -0.78300
C148        C  0.00688068  0.77986297  0.00079958     0.82400
N149        N  0.02002230  0.76869846  0.01388880    -0.78300
C150        C  0.01954158  0.74698792  0.01433291     0.82500
N151        N  0.00550103  0.73637879  0.00149580    -0.80000
Zn152      Zn  0.83203505  0.67706122  0.82810446     1.49700
Zn153      Zn  0.84131512  0.66672118  0.87656250     1.49400
Zn154      Zn  0.84232320  0.62966119  0.84075960     1.49100
Zn155      Zn  0.87912398  0.66609090  0.84129593     1.49500
O156        O  0.84889895  0.65965324  0.84697625    -1.84400
O157        O  0.81739300  0.70038302  0.84386233    -0.75000
O158        O  0.83030958  0.64041911  0.89215570    -0.74800
O159        O  0.81837941  0.62635903  0.81883255    -0.74300
O160        O  0.81904085  0.69045963  0.87787395    -0.75000
O161        O  0.80936027  0.66021516  0.81338232    -0.74600
O162        O  0.83243367  0.61485770  0.86760238    -0.75200
O163        O  0.89396834  0.63960993  0.83051732    -0.74600
O164        O  0.86749586  0.67746932  0.89221279    -0.75300
O165        O  0.86859951  0.61466168  0.82971036    -0.74700
O166        O  0.89368674  0.67604176  0.86821782    -0.75200
O167        O  0.88318475  0.68872875  0.81813746    -0.75100
O168        O  0.84999688  0.69067624  0.80575898    -0.74900
C169        C  0.81237364  0.70306199  0.86332219     0.76900
C170        C  0.82799249  0.62095350  0.88650188     0.77400
C171        C  0.80630476  0.64036932  0.81030841     0.76400
C172        C  0.88783182  0.62060149  0.82645406     0.76700
C173        C  0.88703338  0.68011185  0.88700929     0.77900
C174        C  0.86972029  0.69535373  0.80440057     0.76900
Zn175      Zn  0.82761689  0.32152172  0.16860216     1.49700
Zn176      Zn  0.87446528  0.33739356  0.15850403     1.49400
Zn177      Zn  0.83729080  0.33718659  0.12196930     1.49100
Zn178      Zn  0.83526309  0.37137862  0.16057680     1.49500
O179        O  0.84388199  0.34215322  0.15229763    -1.84400
O180        O  0.84592174  0.30292242  0.18630246    -0.75000
O181        O  0.88982292  0.32835200  0.13122249    -0.74800
O182        O  0.81458999  0.31411801  0.11752644    -0.74300
O183        O  0.87920655  0.31404326  0.18118420    -0.75000
O184        O  0.81063070  0.30176740  0.15046837    -0.74600
O185        O  0.86397042  0.32750682  0.10680325    -0.75200
O186        O  0.82404316  0.38730156  0.13469236    -0.74600
O187        O  0.88772511  0.36460055  0.16999285    -0.75300
O188        O  0.82659896  0.36422126  0.10786204    -0.74700
O189        O  0.86097684  0.38796058  0.17199013    -0.75200
O190        O  0.81154326  0.37101301  0.18327510    -0.75100
O191        O  0.80729898  0.33611348  0.18799015    -0.74900
C192        C  0.86577457  0.30156748  0.19012191     0.76900
C193        C  0.88343776  0.32475717  0.11218270     0.77400
C194        C  0.80634142  0.30097135  0.13070410     0.76400
C195        C  0.82177796  0.38268061  0.11498813     0.76700
C196        C  0.88062030  0.38311703  0.17473412     0.77900
C197        C  0.80224043  0.35528274  0.19239107     0.76900
Zn198      Zn  0.17319572  0.66823249  0.17696332     1.49700
Zn199      Zn  0.16350718  0.65814447  0.12874662     1.49400
Zn200      Zn  0.16123358  0.62080819  0.16438009     1.49100
Zn201      Zn  0.12555514  0.65829371  0.16335731     1.49500
O202        O  0.15565135  0.65112672  0.15820194    -1.84400
O203        O  0.19706169  0.68261281  0.16139137    -0.75000
O204        O  0.17353401  0.63166155  0.11331500    -0.74800
O205        O  0.18207783  0.61704643  0.18925559    -0.74300
O206        O  0.18772206  0.67953959  0.12735814    -0.75000
O207        O  0.18612882  0.65064579  0.20004105    -0.74600
O208        O  0.17381587  0.60642128  0.13837231    -0.75200
O209        O  0.10968544  0.63221191  0.17383222    -0.74600
O210        O  0.13859133  0.67080129  0.11291179    -0.75300
O211        O  0.13352601  0.60585099  0.17272950    -0.74700
O212        O  0.11163357  0.66873205  0.13598601    -0.75200
O213        O  0.12233190  0.68218193  0.18539873    -0.75100
O214        O  0.15622264  0.69111107  0.19103356    -0.74900
C215        C  0.20003300  0.68685908  0.14178083     0.76900
C216        C  0.17744449  0.61257145  0.11929331     0.77400
C217        C  0.18945364  0.63075546  0.20237762     0.76400
C218        C  0.11463403  0.61260401  0.17646408     0.76700
C219        C  0.11899435  0.67361209  0.11762743     0.77900
C220        C  0.13637085  0.69422449  0.19397095     0.76900
C221        C  0.51073969  0.25300374  0.01222577     0.80000
N222        N  0.49730861  0.24215680  0.99906628    -0.78300
C223        C  0.48328344  0.25279557  0.98637138     0.82400
N224        N  0.48270714  0.27450931  0.98699442    -0.78300
C225        C  0.49611421  0.28560944  0.99997210     0.82500
N226        N  0.51011632  0.27472315  0.01250999    -0.80000
C227        C  0.51831362  0.75980707  0.98172219     0.80000
N228        N  0.50484122  0.77008033  0.99531087    -0.78300
C229        C  0.49319262  0.75884832  0.00980808     0.82400
N230        N  0.49525078  0.73725664  0.01067786    -0.78300
C231        C  0.50857271  0.72677611  0.99720976     0.82500
N232        N  0.52000323  0.73815133  0.98271473    -0.80000
C233        C  0.48276947  0.98929889  0.24571550     0.80000
N234        N  0.48260078  0.98926860  0.26736968    -0.78300
C235        C  0.49509360  0.00296186  0.27857626     0.82400
N236        N  0.50783509  0.01695649  0.26790106    -0.78300
C237        C  0.50839696  0.01700881  0.24618311     0.82500
N238        N  0.49586868  0.00305580  0.23517597    -0.80000
C239        C  0.25646154  0.01440348  0.98928048     0.80000
N240        N  0.23477739  0.01470210  0.99033133    -0.78300
C241        C  0.22413928  0.00238576  0.00465729     0.82400
N242        N  0.23543801  0.98960424  0.01801542    -0.78300
C243        C  0.25713844  0.98903881  0.01719122     0.82500
N244        N  0.26762790  0.00149539  0.00275986    -0.80000
C245        C  0.75109929  0.98933838  0.99263562     0.80000
N246        N  0.74001660  0.00384700  0.00438433    -0.78300
C247        C  0.75037771  0.01732523  0.01792714     0.82400
N248        N  0.77204679  0.01635092  0.01947265    -0.78300
C249        C  0.78334146  0.00200470  0.00776442     0.82500
N250        N  0.77273090  0.98852782  0.99447755    -0.80000
Zn251      Zn  0.64234188  0.87260867  0.86200101     1.49700
Zn252      Zn  0.65501537  0.82392475  0.84958426     1.49400
Zn253      Zn  0.65364143  0.85944771  0.81378729     1.49100
Zn254      Zn  0.69042641  0.86064612  0.84862919     1.49500
O255        O  0.66026506  0.85421563  0.84366812    -1.84400
O256        O  0.62303216  0.85425838  0.88067474    -0.75000
O257        O  0.64550103  0.80755461  0.82329345    -0.74800
O258        O  0.62995719  0.88061127  0.81112364    -0.74300
O259        O  0.63282917  0.82110384  0.87227667    -0.75000
O260        O  0.62329840  0.89209401  0.84402327    -0.74600
O261        O  0.64558080  0.83250243  0.79815218    -0.75200
O262        O  0.70526318  0.87024584  0.82176940    -0.74600
O263        O  0.68161079  0.80912786  0.86005821    -0.75300
O264        O  0.67900992  0.87086965  0.79801273    -0.74700
O265        O  0.70616923  0.83470132  0.85906090    -0.75200
O266        O  0.69389253  0.88345405  0.87077309    -0.75100
O267        O  0.66090148  0.89096316  0.88156255    -0.74900
C268        C  0.62148926  0.83405739  0.88308969     0.76900
C269        C  0.64319235  0.81312084  0.80386882     0.77400
C270        C  0.61980157  0.89266036  0.82396162     0.76400
C271        C  0.69856183  0.87357134  0.80288052     0.76700
C272        C  0.70078892  0.81540939  0.86269262     0.77900
C273        C  0.68109550  0.89364629  0.88283341     0.76900
C274        C  0.48307436  0.01347564  0.75249595     0.80000
N275        N  0.48283445  0.01291029  0.73082143    -0.78300
C276        C  0.49626894  0.99985905  0.71992736     0.82400
N277        N  0.51029302  0.98752991  0.73096073    -0.78300
C278        C  0.51089776  0.98801462  0.75265061     0.82500
N279        N  0.49712004  0.00093719  0.76335558    -0.80000
Zn280      Zn  0.33717737  0.16267659  0.87545957     1.49700
Zn281      Zn  0.33845663  0.12565034  0.83921066     1.49400
Zn282      Zn  0.32777053  0.17286292  0.82710479     1.49100
Zn283      Zn  0.37510361  0.16242218  0.84013879     1.49500
O284        O  0.34488561  0.15566943  0.84581369    -1.84400
O285        O  0.32663650  0.13601128  0.89067763    -0.75000
O286        O  0.31488591  0.12208774  0.81687324    -0.74800
O287        O  0.31190416  0.19492065  0.84302886    -0.74300
O288        O  0.32794552  0.11074670  0.86570280    -0.75000
O289        O  0.31426003  0.18603218  0.87718055    -0.74600
O290        O  0.30569915  0.15593823  0.81190692    -0.75200
O291        O  0.37879356  0.18516407  0.81690597    -0.74600
O292        O  0.36504195  0.11084102  0.82876286    -0.75300
O293        O  0.34535882  0.18790339  0.80550377    -0.74700
O294        O  0.39022568  0.13601749  0.82947631    -0.75200
O295        O  0.38951186  0.17283289  0.86714158    -0.75100
O296        O  0.36319148  0.17393167  0.89103045    -0.74900
C297        C  0.32382797  0.11670001  0.88471115     0.76900
C298        C  0.30271741  0.13614919  0.80859926     0.77400
C299        C  0.30683378  0.19793704  0.86240447     0.76400
C300        C  0.36505689  0.19256800  0.80382311     0.76700
C301        C  0.38424090  0.11691932  0.82557841     0.77900
C302        C  0.38268247  0.17699501  0.88586628     0.76900
Zn303      Zn  0.36626864  0.86113132  0.13547636     1.49700
Zn304      Zn  0.35601389  0.81218997  0.14678741     1.49400
Zn305      Zn  0.35359677  0.84697192  0.18353068     1.49100
Zn306      Zn  0.31843895  0.84627895  0.14670901     1.49500
O307        O  0.34866755  0.84178132  0.15312309    -1.84400
O308        O  0.38568589  0.84437496  0.11550859    -0.75000
O309        O  0.36760423  0.79677752  0.17255919    -0.74800
O310        O  0.37556287  0.87000083  0.18708307    -0.74300
O311        O  0.37724363  0.81067383  0.12303164    -0.75000
O312        O  0.38455796  0.88011345  0.15423708    -0.74600
O313        O  0.36447176  0.82044922  0.19869141    -0.75200
O314        O  0.30200557  0.85496175  0.17287606    -0.74600
O315        O  0.33028338  0.79541239  0.13778633    -0.75300
O316        O  0.32638636  0.85603148  0.19859507    -0.74700
O317        O  0.30420040  0.81933458  0.13670214    -0.75200
O318        O  0.31473218  0.86889360  0.12433597    -0.75100
O319        O  0.34759712  0.88026689  0.11709030    -0.74900
C320        C  0.38773701  0.82436020  0.11222532     0.76900
C321        C  0.36930527  0.80177196  0.19218305     0.77400
C322        C  0.38644491  0.88168463  0.17443799     0.76400
C323        C  0.30710474  0.85794766  0.19230755     0.76700
C324        C  0.31080236  0.80022740  0.13459683     0.77900
C325        C  0.32743674  0.88118470  0.11422241     0.76900
Zn326      Zn  0.66790277  0.17605027  0.16949085     1.49700
Zn327      Zn  0.65596999  0.16286959  0.12289709     1.49400
Zn328      Zn  0.65597448  0.12777257  0.16046109     1.49100
Zn329      Zn  0.61961685  0.16468250  0.15969336     1.49500
O330        O  0.64955664  0.15761231  0.15301623    -1.84400
O331        O  0.68368940  0.19720593  0.15171573    -0.75000
O332        O  0.66567096  0.13597211  0.10832196    -0.74800
O333        O  0.67920434  0.12554682  0.18320691    -0.74300
O334        O  0.67977522  0.18460894  0.11886112    -0.75000
O335        O  0.68998116  0.15931824  0.18512921    -0.74600
O336        O  0.66740159  0.11220661  0.13466320    -0.75200
O337        O  0.60443105  0.13820982  0.17011216    -0.74600
O338        O  0.62988276  0.17430554  0.10809767    -0.75300
O339        O  0.62921336  0.11268474  0.17070424    -0.74700
O340        O  0.60455838  0.17554978  0.13305861    -0.75200
O341        O  0.61709247  0.18686672  0.18372077    -0.75100
O342        O  0.65134620  0.19221692  0.19098355    -0.74900
C343        C  0.68820926  0.19764768  0.13197731     0.76900
C344        C  0.67026548  0.11737000  0.11518796     0.77400
C345        C  0.69209809  0.13973927  0.19011518     0.76400
C346        C  0.61007932  0.11898408  0.17383908     0.76700
C347        C  0.61083895  0.17859035  0.11390430     0.77900
C348        C  0.63172107  0.19563905  0.19489529     0.76900
C349        C  0.48881923  0.51694212  0.25160491     0.80000
N350        N  0.48958732  0.51729773  0.22993787    -0.78300
C351        C  0.50195430  0.50316681  0.21904869     0.82400
N352        N  0.51369474  0.48860164  0.23010828    -0.78300
C353        C  0.51332552  0.48827808  0.25179811     0.82500
N354        N  0.50082275  0.50245392  0.26244312    -0.80000
C355        C  0.74415337  0.48659153  0.48285437     0.80000
N356        N  0.76586331  0.48595003  0.48309874    -0.78300
C357        C  0.77720640  0.49828943  0.49684138     0.82400
N358        N  0.76660887  0.51148128  0.51038717    -0.78300
C359        C  0.74488263  0.51223375  0.51048823     0.82500
N360        N  0.73372523  0.49965729  0.49671282    -0.80000
Zn361      Zn  0.65826621  0.33793562  0.37564495     1.49700
Zn362      Zn  0.66475765  0.32351993  0.32804992     1.49400
Zn363      Zn  0.61848579  0.33787425  0.34193993     1.49100
Zn364      Zn  0.65677237  0.37253331  0.33722732     1.49500
O365        O  0.64936502  0.34320962  0.34593565    -1.84400
O366        O  0.68241671  0.31580330  0.37827947    -0.75000
O367        O  0.64557956  0.30259307  0.31435999    -0.74800
O368        O  0.60530383  0.32879680  0.37015344    -0.74300
O369        O  0.68546691  0.30609313  0.34443103    -0.75000
O370        O  0.63309568  0.32645959  0.39228202    -0.74600
O371        O  0.61251287  0.31369819  0.32061345    -0.75200
O372        O  0.63009124  0.38830146  0.32768437    -0.74600
O373        O  0.68045999  0.33847818  0.30483809    -0.75300
O374        O  0.60382084  0.36450864  0.33088632    -0.74700
O375        O  0.67796586  0.37306212  0.31236683    -0.75200
O376        O  0.66941877  0.38870104  0.36214160    -0.75100
O377        O  0.66810254  0.36562512  0.38919416    -0.74900
C378        C  0.69083790  0.30415229  0.36387087     0.76900
C379        C  0.62554836  0.30068450  0.31196634     0.77400
C380        C  0.61323419  0.32407110  0.38832792     0.76400
C381        C  0.61043857  0.38313645  0.32582569     0.76700
C382        C  0.68502199  0.35786481  0.30079540     0.77900
C383        C  0.67231015  0.38416545  0.38177949     0.76900
C384        C  0.48620326  0.25118255  0.51787418     0.80000
N385        N  0.50081689  0.26199782  0.50591615    -0.78300
C386        C  0.51510252  0.25124339  0.49357107     0.82400
N387        N  0.51476357  0.22952898  0.49347350    -0.78300
C388        C  0.50025905  0.21851356  0.50527456     0.82500
N389        N  0.48592737  0.22945588  0.51733895    -0.80000
C390        C  0.48790281  0.74366346  0.48979671     0.80000
N391        N  0.50285533  0.73366940  0.50199596    -0.78300
C392        C  0.51660155  0.74528694  0.51419880     0.82400
N393        N  0.51554439  0.76697811  0.51373310    -0.78300
C394        C  0.50084244  0.77713569  0.50146372     0.82500
N395        N  0.48693462  0.76536740  0.48970592    -0.80000
Zn396      Zn  0.34047419  0.62437614  0.33996860     1.49700
Zn397      Zn  0.33020471  0.67240418  0.33010772     1.49400
Zn398      Zn  0.33917762  0.65943213  0.37776811     1.49100
Zn399      Zn  0.37713347  0.66122751  0.34225196     1.49500
O400        O  0.34705936  0.65403194  0.34787763    -1.84400
O401        O  0.31595568  0.62227840  0.31841553    -0.75000
O402        O  0.31562707  0.69481423  0.34684149    -0.74800
O403        O  0.32867884  0.63209531  0.39193279    -0.74300
O404        O  0.30733234  0.65646454  0.31517310    -0.75000
O405        O  0.33064492  0.60802430  0.36590532    -0.74600
O406        O  0.31601912  0.68251782  0.38010713    -0.75200
O407        O  0.39138837  0.67049679  0.36973639    -0.74600
O408        O  0.34744268  0.68692014  0.30796410    -0.75300
O409        O  0.36530858  0.66970022  0.39393363    -0.74700
O410        O  0.38095675  0.68432260  0.31906524    -0.75200
O411        O  0.39218525  0.63505689  0.33105468    -0.75100
O412        O  0.36695595  0.61007004  0.32820274    -0.74900
C413        C  0.30378733  0.63690172  0.31111304     0.76900
C414        C  0.30970368  0.69599814  0.36617093     0.77400
C415        C  0.32628970  0.61300916  0.38513646     0.76400
C416        C  0.38476260  0.67316012  0.38881889     0.76700
C417        C  0.36711070  0.69146997  0.30592279     0.77900
C418        C  0.38626088  0.61625725  0.32584197     0.76900
C419        C  0.25107297  0.48259204  0.50997204     0.80000
N420        N  0.26223533  0.49496511  0.49603707    -0.78300
C421        C  0.25187822  0.50801027  0.48208620     0.82400
N422        N  0.23012456  0.50857959  0.48215544    -0.78300
C423        C  0.21876686  0.49620566  0.49595854     0.82500
N424        N  0.22935944  0.48329449  0.50984530    -0.80000
C425        C  0.50963863  0.51890011  0.74579459     0.80000
N426        N  0.49659967  0.50491634  0.73536828    -0.78300
C427        C  0.48405791  0.49107867  0.74663874     0.82400
N428        N  0.48458061  0.49148135  0.76832396    -0.78300
C429        C  0.49722345  0.50560799  0.77881162     0.82500
N430        N  0.50969214  0.51916219  0.76744704    -0.80000
Zn431      Zn  0.33761483  0.34013335  0.62674481     1.49700
Zn432      Zn  0.33730595  0.37701774  0.66274954     1.49400
Zn433      Zn  0.32741017  0.32914036  0.67483468     1.49100
Zn434      Zn  0.37467090  0.34058866  0.66275312     1.49500
O435        O  0.34449467  0.34701040  0.65653052    -1.84400
O436        O  0.32673571  0.36639685  0.61128430    -0.75000
O437        O  0.31316513  0.37974705  0.68462125    -0.74800
O438        O  0.31230573  0.30672170  0.65843948    -0.74300
O439        O  0.32694724  0.39196530  0.63592474    -0.75000
O440        O  0.31510310  0.31670065  0.62455579    -0.74600
O441        O  0.30523189  0.34568342  0.69027944    -0.75200
O442        O  0.37836926  0.31774892  0.68589930    -0.74600
O443        O  0.36355360  0.39218197  0.67415886    -0.75300
O444        O  0.34480416  0.31401766  0.69651771    -0.74700
O445        O  0.38901294  0.36728615  0.67382486    -0.75200
O446        O  0.38972760  0.33007068  0.63608878    -0.75100
O447        O  0.36394074  0.32897551  0.61165732    -0.74900
C448        C  0.32325849  0.38568359  0.61690805     0.76900
C449        C  0.30163144  0.36541416  0.69341306     0.77400
C450        C  0.30776220  0.30420966  0.63886335     0.76400
C451        C  0.36453967  0.30974615  0.69852731     0.76700
C452        C  0.38275405  0.38628782  0.67776357     0.77900
C453        C  0.38328492  0.32577709  0.61724606     0.76900
Zn454      Zn  0.68873856  0.64471126  0.65044141     1.49700
Zn455      Zn  0.65172719  0.64910203  0.68499472     1.49400
Zn456      Zn  0.65570759  0.68366152  0.64835327     1.49100
Zn457      Zn  0.63967849  0.63613043  0.63693421     1.49500
O458        O  0.65894450  0.65330166  0.65504412    -1.84400
O459        O  0.70297330  0.63530139  0.67793291    -0.75000
O460        O  0.64482291  0.67682022  0.69966089    -0.74800
O461        O  0.68316329  0.69590171  0.63745909    -0.74300
O462        O  0.67652998  0.63717389  0.70142383    -0.75000
O463        O  0.70642505  0.66917856  0.63860716    -0.74600
O464        O  0.64744589  0.70126118  0.67416302    -0.75200
O465        O  0.62217854  0.65541239  0.61758853    -0.74600
O466        O  0.62667932  0.62934517  0.68808551    -0.75300
O467        O  0.63369518  0.68804543  0.62565480    -0.74700
O468        O  0.61888946  0.61885496  0.65510072    -0.75200
O469        O  0.65661335  0.61557356  0.61829912    -0.75100
O470        O  0.69000688  0.62051878  0.62949730    -0.74900
C471        C  0.69596430  0.63323225  0.69691641     0.76900
C472        C  0.64403757  0.69620779  0.69355768     0.77400
C473        C  0.70192972  0.68864043  0.63459275     0.76400
C474        C  0.62169387  0.67562679  0.61491661     0.76700
C475        C  0.61547124  0.61831897  0.67516821     0.77900
C476        C  0.67646953  0.61097495  0.61765974     0.76900
C477        C  0.24169075  0.98530142  0.48992938     0.80000
N478        N  0.23110587  0.99882573  0.50321536    -0.78300
C479        C  0.24216933  0.01194900  0.51655172     0.82400
N480        N  0.26390272  0.01166078  0.51628017    -0.78300
C481        C  0.27467673  0.99852690  0.50283082     0.82500
N482        N  0.26343428  0.98532592  0.48979600    -0.80000
C483        C  0.75115042  0.98484522  0.51253088     0.80000
N484        N  0.72943997  0.98423395  0.51209970    -0.78300
C485        C  0.71826299  0.99666859  0.49829709     0.82400
N486        N  0.72904321  0.01008101  0.48503956    -0.78300
C487        C  0.75077073  0.01105666  0.48539910     0.82500
N488        N  0.76174341  0.99824376  0.49908194    -0.80000
C489        C  0.01342223  0.24288613  0.50997560     0.80000
N490        N  0.00165217  0.23182717  0.49543439    -0.78300
C491        C  0.98890347  0.24239134  0.48134952     0.82400
N492        N  0.98809955  0.26409948  0.48186913    -0.78300
C493        C  0.99960944  0.27528793  0.49641374     0.82500
N494        N  0.01216246  0.26456831  0.51043970    -0.80000
C495        C  0.01145375  0.98498239  0.25347180     0.80000
N496        N  0.01199323  0.98499369  0.23179119    -0.78300
C497        C  0.99751890  0.99635067  0.22030613     0.82400
N498        N  0.98245853  0.00796542  0.23074675    -0.78300
C499        C  0.98181639  0.00834882  0.25244106     0.82500
N500        N  0.99633784  0.99673665  0.26371109    -0.80000
C501        C  0.98799221  0.74873909  0.51384769     0.80000
N502        N  0.00256492  0.75899019  0.50142062    -0.78300
C503        C  0.01544383  0.74773502  0.48808100     0.82400
N504        N  0.01380437  0.72607960  0.48739047    -0.78300
C505        C  0.99958669  0.71562431  0.50003475     0.82500
N506        N  0.98667663  0.72708132  0.51312226    -0.80000
Zn507      Zn  0.13444518  0.86146702  0.36463729     1.49700
Zn508      Zn  0.14739259  0.85047434  0.31611276     1.49400
Zn509      Zn  0.18313512  0.85061804  0.35189254     1.49100
Zn510      Zn  0.14845012  0.81357455  0.35064746     1.49500
O511        O  0.15318854  0.84414264  0.34598655    -1.84400
O512        O  0.11459010  0.88052936  0.34674545    -0.75000
O513        O  0.17407506  0.85902674  0.30009131    -0.74800
O514        O  0.18553520  0.87447951  0.37310803    -0.74300
O515        O  0.12552351  0.87351099  0.31371452    -0.75000
O516        O  0.15224282  0.88122291  0.38349762    -0.74600
O517        O  0.19912837  0.85855068  0.32510917    -0.75200
O518        O  0.17567055  0.79848528  0.35883330    -0.74600
O519        O  0.13581054  0.82484503  0.30065597    -0.75300
O520        O  0.19882345  0.82496916  0.36331646    -0.74700
O521        O  0.13662184  0.79868192  0.32450258    -0.75200
O522        O  0.12793375  0.80937375  0.37463298    -0.75100
O523        O  0.11702853  0.84182320  0.38417851    -0.74900
C524        C  0.11350959  0.88363089  0.32661126     0.76900
C525        C  0.19354317  0.86093109  0.30571838     0.77400
C526        C  0.17230513  0.88477062  0.38464260     0.76400
C527        C  0.19421425  0.80514876  0.36392526     0.76700
C528        C  0.13272985  0.80537576  0.30570001     0.77900
C529        C  0.11662823  0.82150661  0.38637733     0.76900
Zn530      Zn  0.84824213  0.18333997  0.35023308     1.49700
Zn531      Zn  0.86094817  0.13429464  0.36192605     1.49400
Zn532      Zn  0.81263183  0.14686670  0.34908515     1.49100
Zn533      Zn  0.84928962  0.14784455  0.31410861     1.49500
O534        O  0.84285210  0.15305549  0.34403425    -1.84400
O535        O  0.87064302  0.18561376  0.37287854    -0.75000
O536        O  0.84257095  0.11602282  0.38168837    -0.74800
O537        O  0.79716964  0.17272004  0.36065198    -0.74300
O538        O  0.88090290  0.15233886  0.38020524    -0.75000
O539        O  0.82172258  0.19832730  0.36117079    -0.74600
O540        O  0.80961230  0.12337496  0.37060916    -0.75200
O541        O  0.82314621  0.13904179  0.29780547    -0.74600
O542        O  0.87888778  0.11403906  0.34354907    -0.75300
O543        O  0.79732587  0.13802677  0.32201733    -0.74700
O544        O  0.87092387  0.12475434  0.31070647    -0.75200
O545        O  0.86076541  0.17400223  0.29965745    -0.75100
O546        O  0.85895079  0.19953101  0.32410263    -0.74900
C547        C  0.88240292  0.17249076  0.38306050     0.76900
C548        C  0.82240529  0.11306656  0.38261376     0.77400
C549        C  0.80263141  0.19198589  0.36440753     0.76400
C550        C  0.80368873  0.13590331  0.30282344     0.76700
C551        C  0.88115533  0.11259372  0.32335462     0.77900
C552        C  0.86331607  0.19339627  0.30519967     0.76900
C553        C  0.01847274  0.00683991  0.74835966     0.80000
N554        N  0.00442673  0.99455325  0.73723451    -0.78300
C555        C  0.99124739  0.98065564  0.74750699     0.82400
N556        N  0.99204950  0.97928701  0.76913934    -0.78300
C557        C  0.00592739  0.99150328  0.78049713     0.82500
N558        N  0.01913120  0.00518480  0.76998373    -0.80000
Zn559      Zn  0.87745520  0.83762553  0.65784058     1.49700
Zn560      Zn  0.82926715  0.82812892  0.66856789     1.49400
Zn561      Zn  0.84245427  0.87525025  0.65778352     1.49100
Zn562      Zn  0.84081206  0.83879508  0.62124213     1.49500
O563        O  0.84781764  0.84517293  0.65109089    -1.84400
O564        O  0.87948423  0.81493626  0.68123054    -0.75000
O565        O  0.80720644  0.84558085  0.68316871    -0.74800
O566        O  0.86959899  0.89004174  0.66736095    -0.74300
O567        O  0.84543516  0.81254746  0.69065467    -0.75000
O568        O  0.89330479  0.86358064  0.66844294    -0.74600
O569        O  0.81996406  0.87864310  0.68094071    -0.75200
O570        O  0.82948527  0.86513807  0.60657527    -0.74600
O571        O  0.81462628  0.80552731  0.65203278    -0.75300
O572        O  0.83071534  0.89012031  0.63183747    -0.74700
O573        O  0.81903802  0.81469529  0.61814104    -0.75200
O574        O  0.86719646  0.82869352  0.60605396    -0.75100
O575        O  0.89219550  0.82688072  0.63128831    -0.74900
C576        C  0.86487957  0.80738266  0.69326809     0.76900
C577        C  0.80634647  0.86526237  0.68806174     0.77400
C578        C  0.88835965  0.88313136  0.67131212     0.76400
C579        C  0.82622855  0.88422857  0.61289216     0.76700
C580        C  0.81126560  0.80235346  0.63233467     0.77900
C581        C  0.88616333  0.82429064  0.61201663     0.76900
Zn582      Zn  0.13434256  0.13720373  0.63863256     1.49700
Zn583      Zn  0.14790502  0.18569464  0.64924402     1.49400
Zn584      Zn  0.14517538  0.15151796  0.68674205     1.49100
Zn585      Zn  0.18246988  0.14888097  0.65227707     1.49500
O586        O  0.15236883  0.15572551  0.65666924    -1.84400
O587        O  0.11580096  0.15515471  0.61880212    -0.75000
O588        O  0.13740089  0.20253876  0.67442834    -0.74800
O589        O  0.12196776  0.12968629  0.68982685    -0.74300
O590        O  0.12671144  0.18829451  0.62557788    -0.75000
O591        O  0.11545779  0.11802304  0.65693809    -0.74600
O592        O  0.13566698  0.17891889  0.70079904    -0.75200
O593        O  0.19635515  0.13808031  0.67922737    -0.74600
O594        O  0.17500908  0.20014936  0.63969297    -0.75300
O595        O  0.17057864  0.14072522  0.70338410    -0.74700
O596        O  0.19926011  0.17453891  0.64269939    -0.75200
O597        O  0.18570673  0.12683186  0.62951816    -0.75100
O598        O  0.15265384  0.11814514  0.61986575    -0.74900
C599        C  0.11513886  0.17522061  0.61513991     0.76900
C600        C  0.13366228  0.19795768  0.69387179     0.77400
C601        C  0.11218066  0.11727567  0.67702615     0.76400
C602        C  0.18975784  0.13613273  0.69835621     0.76700
C603        C  0.19424483  0.19374303  0.63826942     0.77900
C604        C  0.17284240  0.11608827  0.61800905     0.76900
C605        C  0.07971300  0.06659762  0.68475062    -0.11100
C606        C  0.07142293  0.06966289  0.70540075     0.06100
C607        C  0.07569837  0.08899971  0.71597415    -0.09800
C608        C  0.08849028  0.10460881  0.70646973    -0.11500
C609        C  0.09716439  0.10138554  0.68605404    -0.01300
C610        C  0.09240274  0.08236032  0.67512722    -0.10400
C611        C  0.05848946  0.05282137  0.71609252     0.06100
H612        H  0.06914629  0.09208462  0.73166500     0.08000
H613        H  0.09171332  0.11920207  0.71519750     0.11500
H614        H  0.09904079  0.07937874  0.65944977     0.11700
H615        H  0.07684684  0.05180094  0.67626098     0.08000
C616        C  0.04318781  0.04099969  0.70467319    -0.11100
C617        C  0.03039427  0.02586510  0.71506100    -0.10400
C618        C  0.03261308  0.02222027  0.73711059    -0.01300
C619        C  0.04824464  0.03373464  0.74841516    -0.11500
C620        C  0.06104450  0.04880245  0.73802684    -0.09900
H621        H  0.04071463  0.04383604  0.68780508     0.08000
H622        H  0.01851656  0.01729042  0.70585030     0.11700
H623        H  0.05056260  0.03120786  0.76535585     0.11500
H624        H  0.07299278  0.05732049  0.74719906     0.08000
C625        C  0.95293820  0.93587869  0.73362501    -0.11100
C626        C  0.94843607  0.94009394  0.71208452     0.06100
C627        C  0.95779110  0.95798925  0.70226340    -0.09800
C628        C  0.97174530  0.97120505  0.71372071    -0.11500
C629        C  0.97630537  0.96693692  0.73530089    -0.01300
C630        C  0.96660394  0.94921331  0.74514421    -0.10400
C631        C  0.93398095  0.92571183  0.70008422     0.06100
H632        H  0.95457898  0.96152139  0.68564721     0.08000
H633        H  0.97889834  0.98478538  0.70569996     0.11500
H634        H  0.96976006  0.94545335  0.76171916     0.11700
H635        H  0.94570906  0.92231499  0.74161702     0.08000
C636        C  0.93666168  0.90347084  0.70138360    -0.11100
C637        C  0.92223400  0.88970757  0.69137779    -0.10400
C638        C  0.90460866  0.89788993  0.68013105    -0.01300
C639        C  0.90220305  0.92017473  0.67837932    -0.11500
C640        C  0.91689140  0.93397478  0.68811454    -0.09900
H641        H  0.94984496  0.89673344  0.71034619     0.08000
H642        H  0.92451275  0.87262251  0.69303670     0.11700
H643        H  0.88883195  0.92692267  0.66971627     0.11500
H644        H  0.91448184  0.95108110  0.68693634     0.08000
C645        C  0.07470535  0.81352395  0.42959358    -0.11100
C646        C  0.07514582  0.79118002  0.43229054     0.06100
C647        C  0.09003453  0.77920818  0.42053951    -0.09800
C648        C  0.10359765  0.78916383  0.40593113    -0.11500
C649        C  0.10276741  0.81141335  0.40273991    -0.01300
C650        C  0.08841346  0.82354698  0.41499261    -0.10400
C651        C  0.05980712  0.78019345  0.44676629     0.06100
H652        H  0.09121046  0.76206024  0.42259328     0.08000
H653        H  0.11465677  0.77931667  0.39700028     0.11500
H654        H  0.08745761  0.84071741  0.41298841     0.11700
H655        H  0.06334354  0.82321482  0.43830239     0.08000
C656        C  0.05377184  0.78936600  0.46634545    -0.11100
C657        C  0.03925917  0.77889618  0.47977308    -0.10400
C658        C  0.03073692  0.75892889  0.47401517    -0.01300
C659        C  0.03679104  0.74973190  0.45452563    -0.11500
C660        C  0.05100092  0.76031544  0.44098121    -0.09900
H661        H  0.06045682  0.80450298  0.47141578     0.08000
H662        H  0.03494221  0.78626516  0.49479975     0.11700
H663        H  0.03023528  0.73449221  0.44955506     0.11500
H664        H  0.05487462  0.75301055  0.42581223     0.08000
C665        C  0.96332875  0.79382525  0.54582757    -0.11100
C666        C  0.94460599  0.78409684  0.55346896     0.06100
C667        C  0.94022840  0.76279606  0.54803071    -0.09800
C668        C  0.95445560  0.75128817  0.53534303    -0.11500
C669        C  0.97318989  0.76097523  0.52755944    -0.01300
C670        C  0.97742383  0.78241780  0.53280503    -0.10400
C671        C  0.92986358  0.79582312  0.56760937     0.06100
H672        H  0.92595575  0.75494512  0.55392976     0.08000
H673        H  0.95066954  0.73483744  0.53149668     0.11500
H674        H  0.99172681  0.79030200  0.52704610     0.11700
H675        H  0.96694220  0.81028124  0.54982727     0.08000
C676        C  0.93756991  0.80579392  0.58612476    -0.11100
C677        C  0.92340064  0.81534714  0.60045699    -0.10400
C678        C  0.90132674  0.81540906  0.59630018    -0.01300
C679        C  0.89373565  0.80604401  0.57736740    -0.11500
C680        C  0.90786958  0.79616904  0.56324401    -0.09900
H681        H  0.95448168  0.80556722  0.58983092     0.08000
H682        H  0.92969381  0.82249798  0.61488727     0.11700
H683        H  0.87680379  0.80579244  0.57376597     0.11500
H684        H  0.90163391  0.78863348  0.54898086     0.08000
C685        C  0.95368238  0.04010709  0.29577481    -0.11100
C686        C  0.93714778  0.05003878  0.28427339     0.06100
C687        C  0.93484371  0.04529815  0.26245397    -0.09800
C688        C  0.94909907  0.03150367  0.25223931    -0.11500
C689        C  0.96595341  0.02196560  0.26361242    -0.01300
C690        C  0.96790169  0.02620027  0.28557143    -0.10400
C691        C  0.92289032  0.06596305  0.29467344     0.06100
H692        H  0.92203033  0.05234478  0.25321060     0.08000
H693        H  0.94697647  0.02844663  0.23536353     0.11500
H694        H  0.98074355  0.01919163  0.29480416     0.11700
H695        H  0.95604217  0.04358523  0.31253333     0.08000
C696        C  0.91540671  0.06299813  0.31566831    -0.11100
C697        C  0.90208916  0.07824447  0.32526596    -0.10400
C698        C  0.89589385  0.09664105  0.31397706    -0.01300
C699        C  0.90347900  0.09959940  0.29306996    -0.11500
C700        C  0.91686809  0.08453768  0.28359557    -0.09900
H701        H  0.91959631  0.04875420  0.32455545     0.08000
H702        H  0.89633565  0.07546399  0.34133098     0.11700
H703        H  0.89917541  0.11371295  0.28401345     0.11500
H704        H  0.92271403  0.08758940  0.26761447     0.08000
C705        C  0.03770223  0.95308494  0.29798729    -0.11100
C706        C  0.05597833  0.94505543  0.28767512     0.06100
C707        C  0.06004346  0.95142424  0.26651857    -0.09800
C708        C  0.04574906  0.96460448  0.25561528    -0.11500
C709        C  0.02713537  0.97207047  0.26565620    -0.01300
C710        C  0.02346092  0.96652373  0.28710655    -0.10400
C711        C  0.07024716  0.92923262  0.29831115     0.06100
H712        H  0.07424468  0.94603974  0.25825000     0.08000
H713        H  0.04925694  0.96884764  0.23922429     0.11500
H714        H  0.00924752  0.97202311  0.29528776     0.11700
H715        H  0.03400697  0.94840079  0.31420884     0.08000
C716        C  0.07531254  0.93062856  0.32018199    -0.11100
C717        C  0.08904517  0.91563077  0.32970752    -0.10400
C718        C  0.09805341  0.89909715  0.31747571    -0.01300
C719        C  0.09266130  0.89759013  0.29576578    -0.11500
C720        C  0.07889015  0.91232671  0.28637297    -0.09900
H721        H  0.06900532  0.94351876  0.32981685     0.08000
H722        H  0.09297300  0.91723349  0.34645997     0.11700
H723        H  0.09905803  0.88487864  0.28593374     0.11500
H724        H  0.07488554  0.91033184  0.26968241     0.08000
C725        C  0.08895271  0.21394673  0.57690221    -0.11100
C726        C  0.07249398  0.20152617  0.56798235     0.06100
C727        C  0.07086192  0.17986348  0.57385938    -0.09800
C728        C  0.08492676  0.17107909  0.58889912    -0.11500
C729        C  0.10078881  0.18383153  0.59842160    -0.01300
C730        C  0.10280642  0.20527020  0.59200183    -0.10400
C731        C  0.05674357  0.21155798  0.55328885     0.06100
H732        H  0.05831722  0.16987208  0.56735382     0.08000
H733        H  0.08305521  0.15447164  0.59343872     0.11500
H734        H  0.11508842  0.21546078  0.59871749     0.11700
H735        H  0.09109440  0.23049967  0.57229329     0.08000
C736        C  0.04984423  0.23261205  0.55698513    -0.11100
C737        C  0.03564990  0.24256962  0.54303682    -0.10400
C738        C  0.02772128  0.23167913  0.52511944    -0.01300
C739        C  0.03409778  0.21041116  0.52163984    -0.11500
C740        C  0.04854474  0.20046543  0.53555427    -0.09900
H741        H  0.05533750  0.24144507  0.57079136     0.08000
H742        H  0.03085993  0.25886610  0.54636083     0.11700
H743        H  0.02831381  0.20162384  0.50792014     0.11500
H744        H  0.05363780  0.18428467  0.53216679     0.08000
C745        C  0.95184774  0.23090116  0.43515400    -0.11100
C746        C  0.94587724  0.20958519  0.43902187     0.06100
C747        C  0.95541330  0.19856351  0.45610520    -0.09800
C748        C  0.97000815  0.20895404  0.46951685    -0.11500
C749        C  0.97522471  0.23056782  0.46612377    -0.01300
C750        C  0.96626170  0.24128553  0.44857770    -0.10400
C751        C  0.92919956  0.19936044  0.42561003     0.06100
H752        H  0.95104991  0.18215798  0.45952864     0.08000
H753        H  0.97662162  0.20029048  0.48294740     0.11500
H754        H  0.97018430  0.25784266  0.44533282     0.11700
H755        H  0.94519510  0.23965990  0.42180242     0.08000
C756        C  0.91121092  0.21119517  0.41927683    -0.11100
C757        C  0.89594175  0.20226600  0.40576812    -0.10400
C758        C  0.89814060  0.18118532  0.39838821    -0.01300
C759        C  0.91572012  0.16901550  0.40526973    -0.11500
C760        C  0.93115927  0.17805140  0.41873673    -0.09900
H761        H  0.90894535  0.22745528  0.42474668     0.08000
H762        H  0.88240643  0.21195585  0.40102723     0.11700
H763        H  0.91782735  0.15273420  0.39980203     0.11500
H764        H  0.94489653  0.16857464  0.42330255     0.08000
C765        C  0.79554796  0.93198385  0.59224650    -0.11100
C766        C  0.79640707  0.92875565  0.57011086     0.06100
C767        C  0.80759409  0.91108878  0.56202632    -0.09800
C768        C  0.81740312  0.89660711  0.57591377    -0.11500
C769        C  0.81653539  0.89981752  0.59808797    -0.01300
C770        C  0.80568947  0.91775819  0.60610653    -0.10400
C771        C  0.78508817  0.94346109  0.55554606     0.06100
H772        H  0.80830027  0.90823813  0.54499330     0.08000
H773        H  0.82566122  0.88291256  0.56931879     0.11500
H774        H  0.80464011  0.92054748  0.62313084     0.11700
H775        H  0.78704805  0.94555696  0.59879358     0.08000
C776        C  0.76350736  0.94835089  0.55911100    -0.11100
C777        C  0.75253587  0.96181797  0.54513822    -0.10400
C778        C  0.76302491  0.97092636  0.52748900    -0.01300
C779        C  0.78476011  0.96629759  0.52414035    -0.11500
C780        C  0.79564340  0.95250709  0.53795072    -0.09900
H781        H  0.75503671  0.94143296  0.57252623     0.08000
H782        H  0.73583044  0.96514030  0.54820946     0.11700
H783        H  0.79325679  0.97303938  0.51066033     0.11500
H784        H  0.81233899  0.94900989  0.53500461     0.08000
C785        C  0.81514997  0.07671181  0.43076756    -0.11100
C786        C  0.79424286  0.06900979  0.42745960     0.06100
C787        C  0.78328011  0.07530174  0.40891565    -0.09800
C788        C  0.79259883  0.08940745  0.39441738    -0.11500
C789        C  0.81329098  0.09740747  0.39784288    -0.01300
C790        C  0.82463103  0.09071432  0.41602837    -0.10400
C791        C  0.78357044  0.05465627  0.44317796     0.06100
H792        H  0.76742423  0.06924878  0.40550592     0.08000
H793        H  0.78355195  0.09401233  0.38041055     0.11500
H794        H  0.84058661  0.09669448  0.41911036     0.11700
H795        H  0.82399097  0.07230956  0.44495490     0.08000
C796        C  0.79495955  0.03847468  0.45384544    -0.11100
C797        C  0.78442182  0.02441453  0.46775332    -0.10400
C798        C  0.76225607  0.02616098  0.47116761    -0.01300
C799        C  0.75101113  0.04259152  0.46082089    -0.11500
C800        C  0.76153853  0.05671812  0.44714843    -0.09900
H801        H  0.81189775  0.03632564  0.45104507     0.08000
H802        H  0.79356572  0.01193571  0.47550628     0.11700
H803        H  0.73400894  0.04463722  0.46333481     0.11500
H804        H  0.75234710  0.06932880  0.43967905     0.08000
C805        C  0.17823650  0.07046727  0.57842346    -0.11100
C806        C  0.20013572  0.07153843  0.57336990     0.06100
C807        C  0.21255375  0.08792896  0.58241592    -0.09800
C808        C  0.20356570  0.10238587  0.59672318    -0.11500
C809        C  0.18183330  0.10104405  0.60218737    -0.01300
C810        C  0.16914623  0.08514996  0.59264227    -0.10400
C811        C  0.21031036  0.05550645  0.55911261     0.06100
H812        H  0.22931016  0.08963121  0.57842920     0.08000
H813        H  0.21370997  0.11466696  0.60351344     0.11500
H814        H  0.15233444  0.08375863  0.59653193     0.11700
H815        H  0.16824608  0.05796855  0.57183160     0.08000
C816        C  0.23117576  0.04833415  0.56337377    -0.11100
C817        C  0.24136315  0.03413516  0.54959777    -0.10400
C818        C  0.23084650  0.02643946  0.53136634    -0.01300
C819        C  0.20974244  0.03301747  0.52736576    -0.11500
C820        C  0.19960350  0.04751374  0.54105063    -0.09900
H821        H  0.23969217  0.05367172  0.57743877     0.08000
H822        H  0.25750338  0.02910052  0.55330548     0.11700
H823        H  0.20126923  0.02738037  0.51338499     0.11500
H824        H  0.18359775  0.05283827  0.53720651     0.08000
C825        C  0.21103010  0.92120355  0.41335546    -0.11100
C826        C  0.19857507  0.92929268  0.43016912     0.06100
C827        C  0.17679298  0.92369040  0.43113150    -0.09800
C828        C  0.16795449  0.90965111  0.41604417    -0.11500
C829        C  0.18076873  0.90090926  0.39979328    -0.01300
C830        C  0.20230183  0.90714700  0.39847789    -0.10400
C831        C  0.20872546  0.94305054  0.44670982     0.06100
H832        H  0.16675539  0.92962182  0.44388860     0.08000
H833        H  0.15128178  0.90519706  0.41744665     0.11500
H834        H  0.21256592  0.90101336  0.38598809     0.11700
H835        H  0.22767397  0.92567458  0.41170523     0.08000
C836        C  0.22971027  0.93870715  0.45347575    -0.11100
C837        C  0.24018206  0.95231522  0.46764520    -0.10400
C838        C  0.22986672  0.97048882  0.47575256    -0.01300
C839        C  0.20853121  0.97440784  0.46983542    -0.11500
C840        C  0.19807627  0.96085666  0.45536183    -0.09900
H841        H  0.23817163  0.92477604  0.44769277     0.08000
H842        H  0.25645263  0.94858312  0.47222463     0.11700
H843        H  0.20014728  0.98827490  0.47588751     0.11500
H844        H  0.18193303  0.96468728  0.45045974     0.08000
C845        C  0.75658992  0.71170294  0.62218877    -0.11100
C846        C  0.75183258  0.73358118  0.62010864     0.06100
C847        C  0.73037000  0.74008087  0.62045167    -0.09800
C848        C  0.71410327  0.72524118  0.62406602    -0.11500
C849        C  0.71891445  0.70354287  0.62746395    -0.01300
C850        C  0.74027947  0.69680654  0.62580204    -0.10400
C851        C  0.76906686  0.74988034  0.62034703     0.06100
H852        H  0.72620975  0.75683557  0.61918039     0.08000
H853        H  0.69781326  0.73098277  0.62515697     0.11500
H854        H  0.74450159  0.68018809  0.62817342     0.11700
H855        H  0.77300310  0.70622972  0.62176150     0.08000
C856        C  0.78580750  0.74799567  0.63514925    -0.11100
C857        C  0.80006083  0.76483571  0.63825278    -0.10400
C858        C  0.79810562  0.78378495  0.62641023    -0.01300
C859        C  0.78227287  0.78528604  0.61064574    -0.11500
C860        C  0.76770716  0.76850073  0.60776321    -0.09900
H861        H  0.78713713  0.73401337  0.64526553     0.08000
H862        H  0.81224783  0.76333386  0.65045133     0.11700
H863        H  0.78045511  0.79982621  0.60142477     0.11500
H864        H  0.75499656  0.77031589  0.59617156     0.08000
C865        C  0.22326001  0.24570384  0.62690794    -0.11100
C866        C  0.24460061  0.23880823  0.62620847     0.06100
C867        C  0.24900841  0.21683091  0.62721941    -0.09800
C868        C  0.23250747  0.20209008  0.63013496    -0.11500
C869        C  0.21124868  0.20904294  0.63217503    -0.01300
C870        C  0.20671660  0.23095041  0.62988448    -0.10400
C871        C  0.26225264  0.25452669  0.62716796     0.06100
H872        H  0.26533703  0.21112657  0.62650351     0.08000
H873        H  0.23651918  0.18531275  0.63158318     0.11500
H874        H  0.19049820  0.23681271  0.63131758     0.11700
H875        H  0.21947284  0.26258868  0.62636951     0.08000
C876        C  0.26230067  0.27292969  0.61425836    -0.11100
C877        C  0.27794317  0.28872399  0.61709916    -0.10400
C878        C  0.29336689  0.28648397  0.63321291    -0.01300
C879        C  0.29367542  0.26778709  0.64560040    -0.11500
C880        C  0.27838304  0.25191186  0.64251057    -0.09900
H881        H  0.25000537  0.27525455  0.60231353     0.08000
H882        H  0.27734519  0.30310826  0.60748193     0.11700
H883        H  0.30545105  0.26570557  0.65811095     0.11500
H884        H  0.27856124  0.23802948  0.65285461     0.08000
C885        C  0.53548133  0.55217686  0.70186733    -0.11100
C886        C  0.55244504  0.56192309  0.71301010     0.06100
C887        C  0.55530368  0.55691771  0.73468220    -0.09800
C888        C  0.54137974  0.54301355  0.74509312    -0.11500
C889        C  0.52429281  0.53342175  0.73411368    -0.01300
C890        C  0.52157331  0.53798102  0.71231125    -0.10400
C891        C  0.56731302  0.57721421  0.70239387     0.06100
H892        H  0.56851191  0.56358330  0.74365252     0.08000
H893        H  0.54419639  0.53963688  0.76181188     0.11500
H894        H  0.50853617  0.53085873  0.70343335     0.11700
H895        H  0.53274102  0.55578447  0.68519222     0.08000
C896        C  0.57430673  0.57397399  0.68129498    -0.11100
C897        C  0.58956462  0.58761947  0.67212701    -0.10400
C898        C  0.59825251  0.60462625  0.68395885    -0.01300
C899        C  0.59076881  0.60821043  0.70477512    -0.11500
C900        C  0.57540111  0.59481132  0.71379556    -0.09900
H901        H  0.56852960  0.56050589  0.67210893     0.08000
H902        H  0.59502956  0.58447390  0.65603653     0.11700
H903        H  0.59687155  0.62138064  0.71419899     0.11500
H904        H  0.56996192  0.59818755  0.72984290     0.08000
C905        C  0.44859864  0.44295459  0.73682493    -0.11100
C906        C  0.44203969  0.44623212  0.71567889     0.06100
C907        C  0.44964473  0.46418055  0.70451370    -0.09800
C908        C  0.46366554  0.47860040  0.71435599    -0.11500
C909        C  0.46995538  0.47552265  0.73567518    -0.01300
C910        C  0.46225721  0.45752586  0.74677682    -0.10400
C911        C  0.42711807  0.43099175  0.70546645     0.06100
H912        H  0.44484413  0.46693348  0.68813429     0.08000
H913        H  0.46927130  0.49233109  0.70541834     0.11500
H914        H  0.46684610  0.45462958  0.76319106     0.11700
H915        H  0.44283376  0.42928607  0.74577138     0.08000
C916        C  0.43141763  0.40897600  0.70581694    -0.11100
C917        C  0.41715356  0.39450261  0.69653266    -0.10400
C918        C  0.39811130  0.40173930  0.68703807    -0.01300
C919        C  0.39376333  0.42379167  0.68685420    -0.11500
C920        C  0.40824184  0.43829723  0.69580842    -0.09900
H921        H  0.44590166  0.40300466  0.71317395     0.08000
H922        H  0.42089857  0.37760926  0.69706362     0.11700
H923        H  0.37921489  0.42984689  0.67970538     0.11500
H924        H  0.40452433  0.45520678  0.69556034     0.08000
C925        C  0.29319449  0.44728069  0.53552445    -0.11100
C926        C  0.28414174  0.44315047  0.55565099     0.06100
C927        C  0.26418720  0.45216558  0.56061323    -0.09800
C928        C  0.25335501  0.46475253  0.54566048    -0.11500
C929        C  0.26244904  0.46896715  0.52559323    -0.01300
C930        C  0.28255327  0.46024598  0.52072290    -0.10400
C931        C  0.29513139  0.42898815  0.57121614     0.06100
H932        H  0.25675205  0.44910334  0.57592427     0.08000
H933        H  0.23794710  0.47139855  0.54988988     0.11500
H934        H  0.28990379  0.46320913  0.50535130     0.11700
H935        H  0.30859780  0.44061622  0.53132098     0.08000
C936        C  0.30376296  0.40936355  0.56459435    -0.11100
C937        C  0.31311532  0.39545084  0.57937413    -0.10400
C938        C  0.31429386  0.40095067  0.60110122    -0.01300
C939        C  0.30608880  0.42083096  0.60764525    -0.11500
C940        C  0.29649540  0.43463641  0.59288109    -0.09900
H941        H  0.30276181  0.40451578  0.54803492     0.08000
H942        H  0.31926946  0.38027904  0.57378602     0.11700
H943        H  0.30669732  0.42555661  0.62425513     0.11500
H944        H  0.29012432  0.44974753  0.59839087     0.08000
C945        C  0.28033876  0.74829520  0.36332599    -0.11100
C946        C  0.26220045  0.74415003  0.37585630     0.06100
C947        C  0.26081963  0.72463999  0.38697838    -0.09800
C948        C  0.27707226  0.70933608  0.38510097    -0.11500
C949        C  0.29466387  0.71320735  0.37174044    -0.01300
C950        C  0.29630003  0.73293567  0.36117251    -0.10400
C951        C  0.24428076  0.75963446  0.37584064     0.06100
H952        H  0.24699015  0.72109110  0.39675937     0.08000
H953        H  0.27534352  0.69409072  0.39313001     0.11500
H954        H  0.30966360  0.73620747  0.35065968     0.11700
H955        H  0.28170346  0.76303377  0.35433916     0.08000
C956        C  0.24836312  0.78167661  0.37722182    -0.11100
C957        C  0.23191116  0.79645937  0.37425888    -0.10400
C958        C  0.21101245  0.78951397  0.36975185    -0.01300
C959        C  0.20675482  0.76742831  0.36931419    -0.11500
C960        C  0.22322646  0.75263688  0.37236393    -0.09900
H961        H  0.26442918  0.78748232  0.38007580     0.08000
H962        H  0.23573333  0.81334038  0.37480991     0.11700
H963        H  0.19083881  0.76154254  0.36587046     0.11500
H964        H  0.21968022  0.73574247  0.37097917     0.08000
C965        C  0.30808792  0.58387139  0.43520220    -0.11100
C966        C  0.29861155  0.56543598  0.42654098     0.06100
C967        C  0.29931454  0.56226846  0.40438825    -0.09800
C968        C  0.30891069  0.57742891  0.39107796    -0.11500
C969        C  0.31769048  0.59629652  0.39959370    -0.01300
C970        C  0.31736854  0.59926736  0.42183527    -0.10400
C971        C  0.28706722  0.55006656  0.44041018     0.06100
H972        H  0.29226237  0.54810097  0.39736023     0.08000
H973        H  0.30889396  0.57464282  0.37402432     0.11500
H974        H  0.32409508  0.61357914  0.42887779     0.11700
H975        H  0.30766411  0.58669540  0.45224537     0.08000
C976        C  0.29658382  0.54201854  0.45904472    -0.11100
C977        C  0.28533876  0.52793296  0.47231916    -0.10400
C978        C  0.26418874  0.52200477  0.46744904    -0.01300
C979        C  0.25474529  0.53001261  0.44873578    -0.11500
C980        C  0.26613990  0.54373789  0.43526128    -0.09900
H981        H  0.31274185  0.54658947  0.46328122     0.08000
H982        H  0.29303437  0.52207236  0.48665171     0.11700
H983        H  0.23852761  0.52566392  0.44449799     0.11500
H984        H  0.25841641  0.54983501  0.42103696     0.08000
C985        C  0.55223761  0.70299708  0.53915129    -0.11100
C986        C  0.56200823  0.71449561  0.55581171     0.06100
C987        C  0.55656716  0.73612075  0.55861520    -0.09800
C988        C  0.54200576  0.74606351  0.54498720    -0.11500
C989        C  0.53223811  0.73458401  0.52836519    -0.01300
C990        C  0.53741397  0.71290280  0.52565588    -0.10400
C991        C  0.57775103  0.70410646  0.57030057     0.06100
H992        H  0.56333105  0.74536717  0.57155994     0.08000
H993        H  0.53817571  0.76272173  0.54770447     0.11500
H994        H  0.53021266  0.70364989  0.51294293     0.11700
H995        H  0.55624920  0.68641071  0.53632735     0.08000
C996        C  0.57526815  0.68264631  0.57662430    -0.11100
C997        C  0.58974864  0.67320823  0.59079764    -0.10400
C998        C  0.60686762  0.68509925  0.59914300    -0.01300
C999        C  0.60951843  0.70643601  0.59262379    -0.11500
C1000       C  0.59524293  0.71576788  0.57827842    -0.09900
H1001       H  0.56184684  0.67325782  0.57103799     0.08000
H1002       H  0.58725547  0.65675426  0.59559606     0.11700
H1003       H  0.62269773  0.71596227  0.59857424     0.11500
H1004       H  0.59799654  0.73214270  0.57338712     0.08000
C1005       C  0.46373160  0.69981243  0.45562177    -0.11100
C1006       C  0.44368767  0.70862414  0.45053261     0.06100
C1007       C  0.43818692  0.72867378  0.45896083    -0.09800
C1008       C  0.45253720  0.73990094  0.47180667    -0.11500
C1009       C  0.47261425  0.73121289  0.47679111    -0.01300
C1010       C  0.47799861  0.71092744  0.46881808    -0.10400
C1011       C  0.42882658  0.69761048  0.43569332     0.06100
H1012       H  0.42297770  0.73598008  0.45510539     0.08000
H1013       H  0.44791480  0.75545301  0.47782361     0.11500
H1014       H  0.49341585  0.70390333  0.47236214     0.11700
H1015       H  0.46834215  0.68434930  0.44938921     0.08000
C1016       C  0.43639229  0.68888738  0.41648358    -0.11100
C1017       C  0.42211251  0.68062093  0.40141751    -0.10400
C1018       C  0.39997546  0.68069258  0.40534046    -0.01300
C1019       C  0.39250100  0.68859672  0.42496275    -0.11500
C1020       C  0.40676591  0.69706171  0.43992449    -0.09900
H1021       H  0.45329248  0.68922002  0.41274027     0.08000
H1022       H  0.42839765  0.67446922  0.38654134     0.11700
H1023       H  0.37556387  0.68878125  0.42853467     0.11500
H1024       H  0.40052483  0.70345656  0.45471812     0.08000
C1025       C  0.46130150  0.29422580  0.55246046    -0.11100
C1026       C  0.44188728  0.28465319  0.55852574     0.06100
C1027       C  0.43698794  0.26414767  0.55075562    -0.09800
C1028       C  0.45135464  0.25331052  0.53752006    -0.11500
C1029       C  0.47078763  0.26287776  0.53148968    -0.01300
C1030       C  0.47551838  0.28352859  0.53894420    -0.10400
C1031       C  0.42694359  0.29586417  0.57316680     0.06100
H1032       H  0.42222873  0.25630139  0.55528823     0.08000
H1033       H  0.44722090  0.23744658  0.53195799     0.11500
H1034       H  0.49040012  0.29127562  0.53463841     0.11700
H1035       H  0.46541647  0.31007983  0.55806225     0.08000
C1036       C  0.43465059  0.30634566  0.59145602    -0.11100
C1037       C  0.42053556  0.31630841  0.60562907    -0.10400
C1038       C  0.39840845  0.31623670  0.60169418    -0.01300
C1039       C  0.39074985  0.30608313  0.58318115    -0.11500
C1040       C  0.40484283  0.29589610  0.56915717    -0.09900
H1041       H  0.45158179  0.30641084  0.59506043     0.08000
H1042       H  0.42694679  0.32395508  0.61974868     0.11700
H1043       H  0.37379266  0.30563449  0.57972723     0.11500
H1044       H  0.39846333  0.28810731  0.55509918     0.08000
C1045       C  0.72273475  0.25333935  0.35943142    -0.11100
C1046       C  0.73702157  0.25477723  0.37660282     0.06100
C1047       C  0.73573985  0.27252948  0.39035970    -0.09800
C1048       C  0.72033272  0.28854835  0.38685080    -0.11500
C1049       C  0.70649256  0.28722852  0.36920307    -0.01300
C1050       C  0.70780948  0.26935738  0.35571818    -0.10400
C1051       C  0.75391211  0.23826296  0.37865155     0.06100
H1052       H  0.74666788  0.27401209  0.40368002     0.08000
H1053       H  0.71963899  0.30216611  0.39748201     0.11500
H1054       H  0.69726669  0.26775695  0.34209164     0.11700
H1055       H  0.72355731  0.24006425  0.34836973     0.08000
C1056       C  0.74864602  0.21657290  0.37606291    -0.11100
C1057       C  0.76459042  0.20133948  0.37268370    -0.10400
C1058       C  0.78619831  0.20746318  0.37172736    -0.01300
C1059       C  0.79157341  0.22889482  0.37607057    -0.11500
C1060       C  0.77555615  0.24415508  0.37957511    -0.09900
H1061       H  0.73206460  0.21158704  0.37550909     0.08000
H1062       H  0.75986273  0.18495471  0.36968882     0.11700
H1063       H  0.80808707  0.23409509  0.37570770     0.11500
H1064       H  0.78003610  0.26077660  0.38146887     0.08000
C1065       C  0.56388949  0.30950775  0.42042634    -0.11100
C1066       C  0.57242291  0.29552521  0.43579622     0.06100
C1067       C  0.59453552  0.29162658  0.43583703    -0.09800
C1068       C  0.60781913  0.30137894  0.42075299    -0.11500
C1069       C  0.59922969  0.31495161  0.40506299    -0.01300
C1070       C  0.57713677  0.31896767  0.40507442    -0.10400
C1071       C  0.55823718  0.28447975  0.45128725     0.06100
H1072       H  0.60155668  0.28103040  0.44757812     0.08000
H1073       H  0.62476826  0.29787197  0.42104120     0.11500
H1074       H  0.57010289  0.32937949  0.39317800     0.11700
H1075       H  0.54687728  0.31265630  0.41992578     0.08000
C1076       C  0.54200762  0.29566836  0.46201113    -0.11100
C1077       C  0.52830452  0.28502828  0.47615044    -0.10400
C1078       C  0.53039127  0.26291298  0.47966261    -0.01300
C1079       C  0.54680535  0.25180988  0.46906724    -0.11500
C1080       C  0.56060481  0.26248345  0.45512185    -0.09900
H1081       H  0.53995930  0.31267468  0.45948399     0.08000
H1082       H  0.51584264  0.29407067  0.48402289     0.11700
H1083       H  0.54891558  0.23478366  0.47138548     0.11500
H1084       H  0.57284355  0.25341540  0.44692821     0.08000
C1085       C  0.70108947  0.53784089  0.54387594    -0.11100
C1086       C  0.71276435  0.55279196  0.55591165     0.06100
C1087       C  0.73485580  0.55476337  0.55227311    -0.09800
C1088       C  0.74515052  0.54174608  0.53743051    -0.11500
C1089       C  0.73361310  0.52648649  0.52567811    -0.01300
C1090       C  0.71140698  0.52483125  0.52889035    -0.10400
C1091       C  0.70224997  0.56623414  0.57241221     0.06100
H1092       H  0.74424160  0.56648167  0.56087867     0.08000
H1093       H  0.76221016  0.54367397  0.53519629     0.11500
H1094       H  0.70204209  0.51322889  0.52010608     0.11700
H1095       H  0.68407618  0.53586167  0.54638261     0.08000
C1096       C  0.68203085  0.57544152  0.56888640    -0.11100
C1097       C  0.67312555  0.58940361  0.58395093    -0.10400
C1098       C  0.68437973  0.59450958  0.60268810    -0.01300
C1099       C  0.70414595  0.58462662  0.60654034    -0.11500
C1100       C  0.71289751  0.57057925  0.59167169    -0.09900
H1101       H  0.67345992  0.57246967  0.55417315     0.08000
H1102       H  0.65786631  0.59683160  0.58056448     0.11700
H1103       H  0.71303095  0.58797437  0.62099696     0.11500
H1104       H  0.72819770  0.56328908  0.59516631     0.08000
C1105       C  0.69951704  0.45495023  0.45656881    -0.11100
C1106       C  0.71002694  0.44641715  0.43867131     0.06100
C1107       C  0.73158041  0.45164452  0.43520282    -0.09800
C1108       C  0.74254001  0.46476074  0.44950846    -0.11500
C1109       C  0.73214989  0.47316616  0.46752076    -0.01300
C1110       C  0.71043396  0.46834450  0.47078262    -0.10400
C1111       C  0.69897609  0.43141783  0.42401979     0.06100
H1112       H  0.74014848  0.44511679  0.42168377     0.08000
H1113       H  0.75922173  0.46827384  0.44645533     0.11500
H1114       H  0.70199834  0.47458147  0.48451584     0.11700
H1115       H  0.68285922  0.45126839  0.45953831     0.08000
C1116       C  0.68668064  0.41446479  0.43216490    -0.11100
C1117       C  0.67787996  0.39918915  0.41843470    -0.10400
C1118       C  0.68091644  0.40075383  0.39626399    -0.01300
C1119       C  0.69260371  0.41811726  0.38807527    -0.11500
C1120       C  0.70166321  0.43320585  0.40182165    -0.09900
H1121       H  0.68448245  0.41261480  0.44920810     0.08000
H1122       H  0.66879711  0.38606906  0.42518043     0.11700
H1123       H  0.69519460  0.41975290  0.37106443     0.11500
H1124       H  0.71091216  0.44622513  0.39510728     0.08000
C1125       C  0.45366633  0.56456775  0.26441832    -0.11100
C1126       C  0.44651649  0.55949946  0.28505208     0.06100
C1127       C  0.45359024  0.54055900  0.29475388    -0.09800
C1128       C  0.46766698  0.52694112  0.28403977    -0.11500
C1129       C  0.47459417  0.53180538  0.26324592    -0.01300
C1130       C  0.46741164  0.55074981  0.25352756    -0.10400
C1131       C  0.43149275  0.57384248  0.29629426     0.06100
H1132       H  0.44833294  0.53639581  0.31069638     0.08000
H1133       H  0.47282348  0.51240633  0.29189884     0.11500
H1134       H  0.47249075  0.55494327  0.23753916     0.11700
H1135       H  0.44829056  0.57904192  0.25658685     0.08000
C1136       C  0.43587286  0.59578350  0.29791971    -0.11100
C1137       C  0.42141961  0.60945177  0.30802740    -0.10400
C1138       C  0.40210599  0.60149439  0.31636054    -0.01300
C1139       C  0.39783154  0.57947456  0.31487050    -0.11500
C1140       C  0.41248796  0.56574905  0.30508681    -0.09900
H1141       H  0.45051421  0.60232868  0.29137808     0.08000
H1142       H  0.42516239  0.62633896  0.30888771     0.11700
H1143       H  0.38312396  0.57286780  0.32118720     0.11500
H1144       H  0.40876105  0.54887373  0.30392198     0.08000
C1145       C  0.54788909  0.46361958  0.29493818    -0.11100
C1146       C  0.55264029  0.44352980  0.28614196     0.06100
C1147       C  0.54409670  0.43814473  0.26611023    -0.09800
C1148       C  0.53138384  0.45271643  0.25490411    -0.11500
C1149       C  0.52657384  0.47277336  0.26372825    -0.01300
C1150       C  0.53476903  0.47800935  0.28394520    -0.10400
C1151       C  0.56686255  0.42836616  0.29753177     0.06100
H1152       H  0.54765029  0.42281477  0.25891918     0.08000
H1153       H  0.52519152  0.44824817  0.23939257     0.11500
H1154       H  0.53138086  0.49341133  0.29106469     0.11700
H1155       H  0.55421892  0.46810988  0.31038648     0.08000
C1156       C  0.58662110  0.43523539  0.30570036    -0.11100
C1157       C  0.60065763  0.42063585  0.31519974    -0.10400
C1158       C  0.59507152  0.39891764  0.31702510    -0.01300
C1159       C  0.57498000  0.39222716  0.30945717    -0.11500
C1160       C  0.56110798  0.40676273  0.29966185    -0.09900
H1161       H  0.59147338  0.45179315  0.30415364     0.08000
H1162       H  0.61598002  0.42631625  0.32091600     0.11700
H1163       H  0.57018606  0.37562270  0.31059380     0.11500
H1164       H  0.54588121  0.40111464  0.29365497     0.08000
C1165       C  0.72384591  0.11426164  0.23486535    -0.11100
C1166       C  0.74236054  0.12704204  0.23485556     0.06100
C1167       C  0.74491734  0.14255498  0.21885578    -0.09800
C1168       C  0.72881120  0.14605107  0.20388979    -0.11500
C1169       C  0.70993899  0.13388165  0.20436005    -0.01300
C1170       C  0.70783639  0.11749140  0.21954375    -0.10400
C1171       C  0.75817668  0.12579880  0.25241059     0.06100
H1172       H  0.75892492  0.15274776  0.21857037     0.08000
H1173       H  0.73088269  0.15868289  0.19222941     0.11500
H1174       H  0.69340733  0.10792617  0.22021337     0.11700
H1175       H  0.72158354  0.10213054  0.24700177     0.08000
C1176       C  0.75136602  0.12631667  0.27376524    -0.11100
C1177       C  0.76620415  0.12872525  0.29030079    -0.10400
C1178       C  0.78814835  0.13056001  0.28577710    -0.01300
C1179       C  0.79499014  0.12880783  0.26446391    -0.11500
C1180       C  0.78015757  0.12653530  0.24796393    -0.09900
H1181       H  0.73448636  0.12600828  0.27759723     0.08000
H1182       H  0.76040823  0.12997994  0.30653360     0.11700
H1183       H  0.81178044  0.12997759  0.26041442     0.11500
H1184       H  0.78581493  0.12599979  0.23163626     0.08000
C1185       C  0.63918313  0.23086024  0.24317331    -0.11100
C1186       C  0.61824095  0.23703578  0.24818246     0.06100
C1187       C  0.60133362  0.22982712  0.23524793    -0.09800
C1188       C  0.60541610  0.21622087  0.21784591    -0.11500
C1189       C  0.62649579  0.20998096  0.21301590    -0.01300
C1190       C  0.64325222  0.21758445  0.22589972    -0.10400
C1191       C  0.61486564  0.25132247  0.26674076     0.06100
H1192       H  0.58504584  0.23448218  0.23877183     0.08000
H1193       H  0.59217639  0.21065902  0.20819659     0.11500
H1194       H  0.65970170  0.21324693  0.22272059     0.11700
H1195       H  0.65257642  0.23653518  0.25256733     0.08000
C1196       C  0.62590614  0.24712302  0.28579698    -0.11100
C1197       C  0.62766762  0.26278732  0.30145944    -0.10400
C1198       C  0.61812523  0.28285311  0.29859060    -0.01300
C1199       C  0.60525947  0.28642933  0.28057838    -0.11500
C1200       C  0.60366667  0.27070677  0.26465518    -0.09900
H1201       H  0.63443114  0.23220291  0.28792195     0.08000
H1202       H  0.63766825  0.25972455  0.31524878     0.11700
H1203       H  0.59801437  0.30193270  0.27796875     0.11500
H1204       H  0.59515133  0.27434387  0.25005204     0.08000
C1205       C  0.24741235  0.86314342  0.27815792    -0.11100
C1206       C  0.24166168  0.86760550  0.25690833     0.06100
C1207       C  0.21997851  0.87132610  0.25220260    -0.09800
C1208       C  0.20440037  0.86985693  0.26816425    -0.11500
C1209       C  0.21014096  0.86484487  0.28926699    -0.01300
C1210       C  0.23187187  0.86188721  0.29414061    -0.10400
C1211       C  0.25806669  0.86716854  0.23964155     0.06100
H1212       H  0.21498148  0.87516865  0.23611207     0.08000
H1213       H  0.18780454  0.87229248  0.26389016     0.11500
H1214       H  0.23683505  0.85779022  0.31018779     0.11700
H1215       H  0.26385544  0.85979958  0.28236233     0.08000
C1216       C  0.27912432  0.87416429  0.24346875    -0.11100
C1217       C  0.29498407  0.87176984  0.22789943    -0.10400
C1218       C  0.29007623  0.86264811  0.20802654    -0.01300
C1219       C  0.26886824  0.85653425  0.20382325    -0.11500
C1220       C  0.25309825  0.85861072  0.21948117    -0.09900
H1221       H  0.28344460  0.88124591  0.25862536     0.08000
H1222       H  0.31115849  0.87679408  0.23151261     0.11700
H1223       H  0.26462698  0.84925921  0.18872415     0.11500
H1224       H  0.23719918  0.85271045  0.21602486     0.08000
C1225       C  0.39437852  0.73428283  0.27232417    -0.11100
C1226       C  0.38034709  0.73540122  0.25479045     0.06100
C1227       C  0.36329609  0.72089453  0.25357659    -0.09800
C1228       C  0.35971480  0.70620631  0.26988458    -0.11500
C1229       C  0.37320695  0.70542444  0.28780149    -0.01300
C1230       C  0.39098478  0.71917981  0.28862906    -0.10400
C1231       C  0.38195820  0.75251482  0.23846170     0.06100
H1232       H  0.35210250  0.72154402  0.24039947     0.08000
H1233       H  0.34595705  0.69573633  0.26869402     0.11500
H1234       H  0.40161168  0.71892390  0.30226687     0.11700
H1235       H  0.40767136  0.74531869  0.27356222     0.08000
C1236       C  0.38242267  0.77410695  0.24458042    -0.11100
C1237       C  0.37929705  0.79028777  0.22940671    -0.10400
C1238       C  0.37589567  0.78515730  0.20780184    -0.01300
C1239       C  0.37693039  0.76358724  0.20156271    -0.11500
C1240       C  0.37980779  0.74746211  0.21673439    -0.09900
H1241       H  0.38384418  0.77840302  0.26125999     0.08000
H1242       H  0.37867928  0.80674250  0.23472990     0.11700
H1243       H  0.37443759  0.75903622  0.18507930     0.11500
H1244       H  0.37944902  0.73092689  0.21161513     0.08000
C1245       C  0.26973668  0.11046824  0.76484976    -0.11100
C1246       C  0.25117148  0.12317531  0.76545726     0.06100
C1247       C  0.24909212  0.13854872  0.78163215    -0.09800
C1248       C  0.26562851  0.14201406  0.79610426    -0.11500
C1249       C  0.28450945  0.12998101  0.79499510    -0.01300
C1250       C  0.28622763  0.11370094  0.77969146    -0.10400
C1251       C  0.23496950  0.12234943  0.74816877     0.06100
H1252       H  0.23515359  0.14877637  0.78238175     0.08000
H1253       H  0.26391400  0.15459716  0.80785311     0.11500
H1254       H  0.30070342  0.10429226  0.77852082     0.11700
H1255       H  0.27170187  0.09845489  0.75257507     0.08000
C1256       C  0.24145192  0.12234149  0.72670894    -0.11100
C1257       C  0.22658372  0.12580429  0.71040761    -0.10400
C1258       C  0.20491037  0.12930996  0.71523217    -0.01300
C1259       C  0.19823158  0.12788585  0.73661125    -0.11500
C1260       C  0.21310714  0.12445609  0.75289751    -0.09900
H1261       H  0.25820557  0.12097153  0.72258500     0.08000
H1262       H  0.23225398  0.12669654  0.69410227     0.11700
H1263       H  0.18163252  0.13028585  0.74087490     0.11500
H1264       H  0.20763035  0.12426852  0.76929275     0.08000
C1265       C  0.35982456  0.27447669  0.74688037    -0.11100
C1266       C  0.37738587  0.26081201  0.74454620     0.06100
C1267       C  0.39254419  0.26499891  0.72854766    -0.09800
C1268       C  0.38927169  0.28191767  0.71412113    -0.11500
C1269       C  0.37076629  0.29462813  0.71560065    -0.01300
C1270       C  0.35655148  0.29117905  0.73261177    -0.10400
C1271       C  0.37763921  0.24088474  0.75713201     0.06100
H1272       H  0.40614475  0.25450577  0.72648524     0.08000
H1273       H  0.40046246  0.28423127  0.70113851     0.11500
H1274       H  0.34230415  0.30084947  0.73436965     0.11700
H1275       H  0.34802240  0.27153094  0.75920076     0.08000
C1276       C  0.39261523  0.23737092  0.77345639    -0.11100
C1277       C  0.38950456  0.22061660  0.78811098    -0.10400
C1278       C  0.37133224  0.20741359  0.78653298    -0.01300
C1279       C  0.35741416  0.21010638  0.76914913    -0.11500
C1280       C  0.36053076  0.22664575  0.75465318    -0.09900
H1281       H  0.40586653  0.24831030  0.77562932     0.08000
H1282       H  0.40048319  0.21885697  0.80135598     0.11700
H1283       H  0.34345380  0.20001229  0.76729633     0.11500
H1284       H  0.34887371  0.22907175  0.74208786     0.08000
C1285       C  0.44675255  0.06036111  0.76416819    -0.11100
C1286       C  0.44206378  0.05725567  0.78583197     0.06100
C1287       C  0.45069137  0.03952257  0.79652235    -0.09800
C1288       C  0.46411393  0.02527435  0.78575678    -0.11500
C1289       C  0.46875631  0.02831485  0.76401160    -0.01300
C1290       C  0.45980770  0.04593165  0.75330808    -0.10400
C1291       C  0.42795695  0.07242428  0.79708860     0.06100
H1292       H  0.44725568  0.03688137  0.81326038     0.08000
H1293       H  0.47072041  0.01181170  0.79439667     0.11500
H1294       H  0.46313161  0.04876187  0.73658105     0.11700
H1295       H  0.44009128  0.07384527  0.75559275     0.08000
C1296       C  0.43212035  0.09446542  0.79631251    -0.11100
C1297       C  0.41826244  0.10890782  0.80617577    -0.10400
C1298       C  0.39976621  0.10156529  0.81661618    -0.01300
C1299       C  0.39576213  0.07946361  0.81755181    -0.11500
C1300       C  0.40985173  0.06500834  0.80803937    -0.09900
H1301       H  0.44607299  0.10048234  0.78800450     0.08000
H1302       H  0.42171261  0.12584722  0.80511921     0.11700
H1303       H  0.38165682  0.07335332  0.82552249     0.11500
H1304       H  0.40631158  0.04806382  0.80870740     0.08000
C1305       C  0.75059022  0.88159404  0.77319022    -0.11100
C1306       C  0.74331403  0.88323729  0.75206029     0.06100
C1307       C  0.72127092  0.88433288  0.74810518    -0.09800
C1308       C  0.70669863  0.88251632  0.76485612    -0.11500
C1309       C  0.71390251  0.87940260  0.78588583    -0.01300
C1310       C  0.73600483  0.87965054  0.78997733    -0.10400
C1311       C  0.75847489  0.88097177  0.73414014     0.06100
H1312       H  0.71532637  0.88574992  0.73192922     0.08000
H1313       H  0.68978298  0.88255326  0.76117220     0.11500
H1314       H  0.74206175  0.87727289  0.80599234     0.11700
H1315       H  0.76753226  0.88050133  0.77658785     0.08000
C1316       C  0.77771397  0.89257405  0.73358038    -0.11100
C1317       C  0.79295234  0.88839576  0.71776258    -0.10400
C1318       C  0.78931510  0.87220373  0.70268609    -0.01300
C1319       C  0.76979014  0.86113483  0.70288309    -0.11500
C1320       C  0.75445399  0.86559312  0.71834805    -0.09900
H1321       H  0.78110523  0.90450699  0.74563019     0.08000
H1322       H  0.80796793  0.89703497  0.71795972     0.11700
H1323       H  0.76660947  0.84861737  0.69137138     0.11500
H1324       H  0.73985353  0.85626507  0.71858875     0.08000
C1325       C  0.64192063  0.78471049  0.75053677    -0.11100
C1326       C  0.63540551  0.76392653  0.75626113     0.06100
C1327       C  0.62980038  0.76003527  0.77771000    -0.09800
C1328       C  0.63171404  0.77612965  0.79311895    -0.11500
C1329       C  0.63882834  0.79665442  0.78740349    -0.01300
C1330       C  0.64341237  0.80087954  0.76585474    -0.10400
C1331       C  0.63574051  0.74621280  0.74022917     0.06100
H1332       H  0.62417607  0.74445640  0.78273048     0.08000
H1333       H  0.62790264  0.77242006  0.80956886     0.11500
H1334       H  0.64911546  0.81648316  0.76093784     0.11700
H1335       H  0.64676711  0.78838400  0.73437170     0.08000
C1336       C  0.63201061  0.75022605  0.71840003    -0.11100
C1337       C  0.63430749  0.73395692  0.70323245    -0.10400
C1338       C  0.63994839  0.71316593  0.70954879    -0.01300
C1339       C  0.64286815  0.70891823  0.73137066    -0.11500
C1340       C  0.64098742  0.72523184  0.74647130    -0.09900
H1341       H  0.62746157  0.76599147  0.71293000     0.08000
H1342       H  0.63180369  0.73769120  0.68653988     0.11700
H1343       H  0.64742178  0.69310374  0.73675387     0.11500
H1344       H  0.64445144  0.72145585  0.76296269     0.08000
C1345       C  0.58093513  0.93898548  0.81713201    -0.11100
C1346       C  0.57343307  0.93537188  0.79624400     0.06100
C1347       C  0.58088219  0.91736868  0.78512235    -0.09800
C1348       C  0.59582395  0.90368293  0.79426519    -0.11500
C1349       C  0.60356588  0.90734131  0.81497008    -0.01300
C1350       C  0.59582939  0.92502535  0.82645504    -0.10400
C1351       C  0.55798736  0.95008570  0.78570809     0.06100
H1352       H  0.57502705  0.91368280  0.76928669     0.08000
H1353       H  0.60120373  0.89005074  0.78507559     0.11500
H1354       H  0.60156206  0.92826542  0.84243519     0.11700
H1355       H  0.57561233  0.95277543  0.82609538     0.08000
C1356       C  0.54097440  0.95938598  0.79706650    -0.11100
C1357       C  0.52570382  0.97190283  0.78646175    -0.10400
C1358       C  0.52709225  0.97522504  0.76428654    -0.01300
C1359       C  0.54439175  0.96635471  0.75312110    -0.11500
C1360       C  0.55970036  0.95414288  0.76370036    -0.09900
H1361       H  0.53911083  0.95649912  0.81400093     0.08000
H1362       H  0.51260495  0.97861117  0.79554272     0.11700
H1363       H  0.54621854  0.96890709  0.73612212     0.11500
H1364       H  0.57291245  0.94778577  0.75453427     0.08000
C1365       C  0.68957045  0.09090413  0.06434866    -0.11100
C1366       C  0.70205447  0.07411208  0.07247430     0.06100
C1367       C  0.70296944  0.07095250  0.09465137    -0.09800
C1368       C  0.69196470  0.08454521  0.10847193    -0.11500
C1369       C  0.68003223  0.10176685  0.10041498    -0.01300
C1370       C  0.67879314  0.10471534  0.07820056    -0.10400
C1371       C  0.71453057  0.06017201  0.05798970     0.06100
H1372       H  0.71228448  0.05797155  0.10130739     0.08000
H1373       H  0.69332914  0.08193990  0.12550783     0.11500
H1374       H  0.66971358  0.11785945  0.07154206     0.11700
H1375       H  0.68867490  0.09372750  0.04731778     0.08000
C1376       C  0.70520852  0.05156299  0.03949948    -0.11100
C1377       C  0.71686463  0.03774481  0.02636582    -0.10400
C1378       C  0.73816960  0.03254021  0.03131108    -0.01300
C1379       C  0.74761281  0.04162927  0.04952543    -0.11500
C1380       C  0.73588287  0.05518426  0.06277724    -0.09900
H1381       H  0.68875383  0.05512993  0.03548411     0.08000
H1382       H  0.70917773  0.03109871  0.01237583     0.11700
H1383       H  0.76397793  0.03795602  0.05379599     0.11500
H1384       H  0.74353832  0.06184567  0.07678204     0.08000
C1385       C  0.72058902  0.92881420  0.91222184    -0.11100
C1386       C  0.70899805  0.93483301  0.93048555     0.06100
C1387       C  0.68765387  0.92792143  0.93244601    -0.09800
C1388       C  0.67831379  0.91501458  0.91671457    -0.11500
C1389       C  0.69018881  0.90855757  0.89881530    -0.01300
C1390       C  0.71137055  0.91574098  0.89669737    -0.10400
C1391       C  0.71933327  0.94814039  0.94732805     0.06100
H1392       H  0.67829945  0.93205322  0.94637453     0.08000
H1393       H  0.66199922  0.90961527  0.91884984     0.11500
H1394       H  0.72089098  0.91123961  0.88298412     0.11700
H1395       H  0.73683936  0.93427171  0.90982718     0.08000
C1396       C  0.74112670  0.94543063  0.95215138    -0.11100
C1397       C  0.75127635  0.95860501  0.96700698    -0.10400
C1398       C  0.73989033  0.97475685  0.97764476    -0.01300
C1399       C  0.71792696  0.97705368  0.97340337    -0.11500
C1400       C  0.70777916  0.96393609  0.95837626    -0.09900
H1401       H  0.75043094  0.93307339  0.94443161     0.08000
H1402       H  0.76813853  0.95615627  0.97004803     0.11700
H1403       H  0.70864431  0.98929336  0.98134332     0.11500
H1404       H  0.69102400  0.96659692  0.95499545     0.08000
C1405       C  0.29996281  0.95245039  0.03977429    -0.11100
C1406       C  0.28978142  0.94447626  0.05815442     0.06100
C1407       C  0.26937740  0.95221851  0.06343314    -0.09800
C1408       C  0.25904933  0.96694009  0.05029621    -0.11500
C1409       C  0.26894260  0.97452158  0.03164833    -0.01300
C1410       C  0.28966081  0.96740737  0.02667432    -0.10400
C1411       C  0.29995724  0.92778288  0.07164100     0.06100
H1412       H  0.26131155  0.94683237  0.07775429     0.08000
H1413       H  0.24321777  0.97233460  0.05473802     0.11500
H1414       H  0.29764008  0.97290777  0.01234669     0.11700
H1415       H  0.31562062  0.94669053  0.03520347     0.08000
C1416       C  0.28745561  0.91124462  0.08031721    -0.11100
C1417       C  0.29649723  0.89606229  0.09387199    -0.10400
C1418       C  0.31834153  0.89689021  0.09901761    -0.01300
C1419       C  0.33105654  0.91304458  0.08987773    -0.11500
C1420       C  0.32193965  0.92836645  0.07632942    -0.09900
H1421       H  0.27058982  0.91001201  0.07661769     0.08000
H1422       H  0.28627969  0.88369370  0.10040454     0.11700
H1423       H  0.34794604  0.91410180  0.09352171     0.11500
H1424       H  0.33197199  0.94097118  0.06997685     0.08000
C1425       C  0.26658991  0.04901395  0.94075789    -0.11100
C1426       C  0.28770476  0.05580138  0.94413137     0.06100
C1427       C  0.29879551  0.04841394  0.96218537    -0.09800
C1428       C  0.28888264  0.03450286  0.97665626    -0.11500
C1429       C  0.26756583  0.02811283  0.97352333    -0.01300
C1430       C  0.25656987  0.03546378  0.95537948    -0.10400
C1431       C  0.29783842  0.07093649  0.92901594     0.06100
H1432       H  0.31514440  0.05336513  0.96503539     0.08000
H1433       H  0.29772124  0.02914359  0.99052029     0.11500
H1434       H  0.24016239  0.03074652  0.95246525     0.11700
H1435       H  0.25766762  0.05460477  0.92703319     0.08000
C1436       C  0.29680845  0.06723939  0.90694705    -0.11100
C1437       C  0.30561129  0.08193014  0.89260574    -0.10400
C1438       C  0.31528926  0.10081502  0.90003397    -0.01300
C1439       C  0.31635879  0.10447467  0.92213466    -0.11500
C1440       C  0.30788402  0.08956877  0.93649987    -0.09900
H1441       H  0.28920189  0.05294340  0.90081090     0.08000
H1442       H  0.30446941  0.07869504  0.87566898     0.11700
H1443       H  0.32376367  0.11885202  0.92831810     0.11500
H1444       H  0.30869905  0.09283688  0.95345116     0.08000
C1445       C  0.54178977  0.04247528  0.20242201    -0.11100
C1446       C  0.55025849  0.06040222  0.21292781     0.06100
C1447       C  0.54478103  0.06402530  0.23435617    -0.09800
C1448       C  0.53123471  0.04991913  0.24514547    -0.11500
C1449       C  0.52265005  0.03201279  0.23465405    -0.01300
C1450       C  0.52797685  0.02850474  0.21312780    -0.10400
C1451       C  0.56491156  0.07528254  0.20173802     0.06100
H1452       H  0.55126343  0.07762964  0.24287104     0.08000
H1453       H  0.52740881  0.05311327  0.26169102     0.11500
H1454       H  0.52167780  0.01481832  0.20461220     0.11700
H1455       H  0.54568776  0.03941065  0.18586578     0.08000
C1456       C  0.58229296  0.06749040  0.18986911    -0.11100
C1457       C  0.59690364  0.08165920  0.18054444    -0.10400
C1458       C  0.59414080  0.10386131  0.18259353    -0.01300
C1459       C  0.57634511  0.11160294  0.19386126    -0.11500
C1460       C  0.56198920  0.09746288  0.20348345    -0.09900
H1461       H  0.58492653  0.05044648  0.18836135     0.08000
H1462       H  0.61042149  0.07526494  0.17185413     0.11700
H1463       H  0.57383249  0.12862863  0.19575056     0.11500
H1464       H  0.54860142  0.10386077  0.21237593     0.08000
C1465       C  0.43729341  0.95153690  0.23359855    -0.11100
C1466       C  0.44207977  0.94481284  0.21275197     0.06100
C1467       C  0.45995426  0.95365066  0.20234238    -0.09800
C1468       C  0.47304805  0.96847577  0.21283047    -0.11500
C1469       C  0.46859112  0.97453074  0.23395822    -0.01300
C1470       C  0.45046130  0.96607047  0.24411572    -0.10400
C1471       C  0.42864432  0.92823416  0.20236203     0.06100
H1472       H  0.46413804  0.94869604  0.18633119     0.08000
H1473       H  0.48694115  0.97475702  0.20462680     0.11500
H1474       H  0.44638097  0.97072333  0.26025326     0.11700
H1475       H  0.42332244  0.94552139  0.24186167     0.08000
C1476       C  0.42053769  0.91116053  0.21451148    -0.11100
C1477       C  0.40703832  0.89603542  0.20532255    -0.10400
C1478       C  0.40147926  0.89741193  0.18366077    -0.01300
C1479       C  0.41005360  0.91408639  0.17125730    -0.11500
C1480       C  0.42347191  0.92941276  0.18054765    -0.09900
H1481       H  0.42465221  0.90944216  0.23120878     0.08000
H1482       H  0.40094515  0.88322048  0.21525056     0.11700
H1483       H  0.40601939  0.91555727  0.15451445     0.11500
H1484       H  0.42935538  0.94244841  0.17079563     0.08000
C1485       C  0.55677207  0.77230667  0.93690255    -0.11100
C1486       C  0.56010339  0.79438783  0.93946080     0.06100
C1487       C  0.54838212  0.80534437  0.95514429    -0.09800
C1488       C  0.53425908  0.79426177  0.96850617    -0.11500
C1489       C  0.53169607  0.77200579  0.96649818    -0.01300
C1490       C  0.54284192  0.76124397  0.95030552    -0.10400
C1491       C  0.57627945  0.80555747  0.92614980     0.06100
H1492       H  0.55064283  0.82233595  0.95755930     0.08000
H1493       H  0.52587175  0.80302423  0.98081889     0.11500
H1494       H  0.54100106  0.74416970  0.94809123     0.11700
H1495       H  0.56508284  0.76348517  0.92458091     0.08000
C1496       C  0.59551502  0.79518471  0.92104122    -0.11100
C1497       C  0.61025390  0.80473007  0.90738450    -0.10400
C1498       C  0.60633004  0.82505207  0.89874437    -0.01300
C1499       C  0.58761162  0.83597720  0.90456490    -0.11500
C1500       C  0.57262664  0.82624857  0.91808775    -0.09900
H1501       H  0.59915235  0.77954640  0.92750804     0.08000
H1502       H  0.62474848  0.79611148  0.90348577     0.11700
H1503       H  0.58423282  0.85167429  0.89809089     0.11500
H1504       H  0.55793315  0.83462982  0.92169460     0.08000
C1505       C  0.45384959  0.76808446  0.05464871    -0.11100
C1506       C  0.44819119  0.78963000  0.05174024     0.06100
C1507       C  0.45808498  0.80131940  0.03529116    -0.09800
C1508       C  0.47297425  0.79149363  0.02179076    -0.11500
C1509       C  0.47818625  0.76977920  0.02446052    -0.01300
C1510       C  0.46855144  0.75827619  0.04115323    -0.10400
C1511       C  0.43190101  0.79952620  0.06587824     0.06100
H1512       H  0.45398457  0.81791523  0.03256551     0.08000
H1513       H  0.48010440  0.80079781  0.00906775     0.11500
H1514       H  0.47234700  0.74160124  0.04386275     0.11700
H1515       H  0.44697866  0.75875177  0.06749312     0.08000
C1516       C  0.41418445  0.78746386  0.07262810    -0.11100
C1517       C  0.39976939  0.79576697  0.08737967    -0.10400
C1518       C  0.40247431  0.81648765  0.09555097    -0.01300
C1519       C  0.41955811  0.82903927  0.08808238    -0.11500
C1520       C  0.43422330  0.82058807  0.07343389    -0.09900
H1521       H  0.41154188  0.77143952  0.06664796     0.08000
H1522       H  0.38651638  0.78585375  0.09249967     0.11700
H1523       H  0.42197867  0.84509225  0.09408640     0.11500
H1524       H  0.44774106  0.83026506  0.06859771     0.08000
C1525       C  0.53628427  0.20843085  0.04442115    -0.11100
C1526       C  0.55353878  0.21907051  0.05401112     0.06100
C1527       C  0.55681081  0.24084778  0.04962275    -0.09800
C1528       C  0.54290890  0.25188385  0.03608192    -0.11500
C1529       C  0.52564297  0.24126302  0.02638025    -0.01300
C1530       C  0.52257223  0.21937136  0.03058488    -0.10400
C1531       C  0.56806180  0.20762210  0.06872626     0.06100
H1532       H  0.56994784  0.24940631  0.05696989     0.08000
H1533       H  0.54574537  0.26871572  0.03315231     0.11500
H1534       H  0.50938923  0.21073973  0.02341883     0.11700
H1535       H  0.53354014  0.19160617  0.04750347     0.08000
C1536       C  0.55987656  0.19573637  0.08592531    -0.11100
C1537       C  0.57372845  0.18611748  0.10061596    -0.10400
C1538       C  0.59597996  0.18785177  0.09805453    -0.01300
C1539       C  0.60409199  0.19914362  0.08041491    -0.11500
C1540       C  0.59027311  0.20911196  0.06602643    -0.09900
H1541       H  0.54277909  0.19442772  0.08832407     0.08000
H1542       H  0.56706141  0.17739542  0.11399340     0.11700
H1543       H  0.62116798  0.20077344  0.07805028     0.11500
H1544       H  0.59692551  0.21805699  0.05278360     0.08000
C1545       C  0.43647893  0.23950298  0.95036475    -0.11100
C1546       C  0.44068130  0.21813211  0.94490914     0.06100
C1547       C  0.45911706  0.20825456  0.95306801    -0.09800
C1548       C  0.47291557  0.21945640  0.96663212    -0.11500
C1549       C  0.46870433  0.24085798  0.97206113    -0.01300
C1550       C  0.45039127  0.25077825  0.96368451    -0.10400
C1551       C  0.42589904  0.20636643  0.93057888     0.06100
H1552       H  0.46269536  0.19177359  0.94918454     0.08000
H1553       H  0.48695855  0.21140013  0.97273925     0.11500
H1554       H  0.44668220  0.26723152  0.96756783     0.11700
H1555       H  0.42253903  0.24760339  0.94407917     0.08000
C1556       C  0.40367182  0.20804170  0.93332191    -0.11100
C1557       C  0.38966123  0.19793486  0.91917607    -0.10400
C1558       C  0.39757459  0.18617092  0.90179560    -0.01300
C1559       C  0.41981058  0.18411759  0.89929543    -0.11500
C1560       C  0.43383605  0.19397979  0.91364647    -0.09900
H1561       H  0.39712103  0.21727205  0.94638939     0.08000
H1562       H  0.37261525  0.19983718  0.92150780     0.11700
H1563       H  0.42636593  0.17505762  0.88611285     0.11500
H1564       H  0.45089193  0.19248809  0.91110746     0.08000
C1565       C  0.13911930  0.74630970  0.22394949    -0.11100
C1566       C  0.12203912  0.74436755  0.23833638     0.06100
C1567       C  0.10844929  0.72650558  0.23689478    -0.09800
C1568       C  0.11225213  0.71060625  0.22156478    -0.11500
C1569       C  0.13003306  0.71212900  0.20793745    -0.01300
C1570       C  0.14318063  0.73029595  0.20906155    -0.10400
C1571       C  0.11997425  0.76019599  0.25576910     0.06100
H1572       H  0.09519670  0.72469092  0.24786870     0.08000
H1573       H  0.10197258  0.69667174  0.22106694     0.11500
H1574       H  0.15696478  0.73188023  0.19871096     0.11700
H1575       H  0.14997382  0.75978500  0.22489084     0.08000
C1576       C  0.11987386  0.75347301  0.27715962    -0.11100
C1577       C  0.12281368  0.76830847  0.29363661    -0.10400
C1578       C  0.12572335  0.79013161  0.28897033    -0.01300
C1579       C  0.12405041  0.79695076  0.26763773    -0.11500
C1580       C  0.12133272  0.78212498  0.25121853    -0.09900
H1581       H  0.11898782  0.73661643  0.28104316     0.08000
H1582       H  0.12388042  0.76254941  0.30990157     0.11700
H1583       H  0.12601889  0.81364425  0.26346369     0.11500
H1584       H  0.12130798  0.78768090  0.23483949     0.08000
C1585       C  0.25265737  0.71604867  0.14426617    -0.11100
C1586       C  0.24981244  0.73186611  0.12861351     0.06100
C1587       C  0.23119228  0.73168060  0.11609349    -0.09800
C1588       C  0.21540169  0.71622758  0.11957380    -0.11500
C1589       C  0.21781477  0.70111722  0.13597005    -0.01300
C1590       C  0.23669237  0.70093952  0.14806086    -0.10400
C1591       C  0.26546063  0.74946287  0.12678688     0.06100
H1592       H  0.22870992  0.74373888  0.10392837     0.08000
H1593       H  0.20088046  0.71672237  0.11017055     0.11500
H1594       H  0.23888113  0.68938435  0.16076290     0.11700
H1595       H  0.26679093  0.71600495  0.15425499     0.08000
C1596       C  0.25851185  0.77078022  0.12747096    -0.11100
C1597       C  0.27331579  0.78743753  0.12891832    -0.10400
C1598       C  0.29534275  0.78305394  0.12963532    -0.01300
C1599       C  0.30227088  0.76175828  0.12775396    -0.11500
C1600       C  0.28745180  0.74511329  0.12643929    -0.09900
H1601       H  0.24161097  0.77448905  0.12800000     0.08000
H1602       H  0.26745870  0.80365449  0.13041654     0.11700
H1603       H  0.31912773  0.75785605  0.12816122     0.11500
H1604       H  0.29314056  0.72877494  0.12577096     0.08000
C1605       C  0.21263460  0.63037802  0.25750018    -0.11100
C1606       C  0.23282176  0.62115452  0.25390305     0.06100
C1607       C  0.23695061  0.61173669  0.23391561    -0.09800
C1608       C  0.22186882  0.61309198  0.21741734    -0.11500
C1609       C  0.20262202  0.62409862  0.22062880    -0.01300
C1610       C  0.19784157  0.63212283  0.24093861    -0.10400
C1611       C  0.25020732  0.62390222  0.26990651     0.06100
H1612       H  0.25236611  0.60465847  0.23054039     0.08000
H1613       H  0.22593264  0.60705434  0.20173957     0.11500
H1614       H  0.18302748  0.64064358  0.24370528     0.11700
H1615       H  0.20868135  0.63726380  0.27284539     0.08000
C1616       C  0.25197836  0.64335395  0.28097642    -0.11100
C1617       C  0.26910219  0.64714798  0.29463514    -0.10400
C1618       C  0.28505268  0.63164443  0.29765239    -0.01300
C1619       C  0.28311792  0.61190472  0.28712927    -0.11500
C1620       C  0.26588809  0.60810682  0.27326863    -0.09900
H1621       H  0.24053347  0.65608809  0.27850350     0.08000
H1622       H  0.27000774  0.66248965  0.30259240     0.11700
H1623       H  0.29517536  0.59966148  0.28917185     0.11500
H1624       H  0.26492601  0.59291329  0.26506376     0.08000
C1625       C  0.88878313  0.27413743  0.23886021    -0.11100
C1626       C  0.87842141  0.25415656  0.23775831     0.06100
C1627       C  0.86594149  0.24942594  0.21973201    -0.09800
C1628       C  0.86295879  0.26460571  0.20374613    -0.11500
C1629       C  0.87260926  0.28479906  0.20517065    -0.01300
C1630       C  0.88605698  0.28931239  0.22253245    -0.10400
C1631       C  0.87872365  0.23880875  0.25588635     0.06100
H1632       H  0.85746711  0.23436702  0.21851705     0.08000
H1633       H  0.85240499  0.26084390  0.19055493     0.11500
H1634       H  0.89341520  0.30491888  0.22405971     0.11700
H1635       H  0.89852110  0.27818052  0.25256301     0.08000
C1636       C  0.87979271  0.21673133  0.25193897    -0.11100
C1637       C  0.87580879  0.20203311  0.26823610    -0.10400
C1638       C  0.87067909  0.20903220  0.28893545    -0.01300
C1639       C  0.87110974  0.23109107  0.29326827    -0.11500
C1640       C  0.87510844  0.24584641  0.27688679    -0.09900
H1641       H  0.88288508  0.21082404  0.23599460     0.08000
H1642       H  0.87593164  0.18516175  0.26436791     0.11700
H1643       H  0.86736314  0.23700276  0.30906594     0.11500
H1644       H  0.87406263  0.26276275  0.28039354     0.08000
C1645       C  0.75658428  0.27580739  0.10794681    -0.11100
C1646       C  0.75757989  0.25526936  0.11697034     0.06100
C1647       C  0.77591645  0.24912113  0.12828268    -0.09800
C1648       C  0.79238778  0.26378947  0.13178117    -0.11500
C1649       C  0.79103224  0.28462112  0.12351356    -0.01300
C1650       C  0.77338620  0.29031394  0.11092768    -0.10400
C1651       C  0.73851362  0.24138213  0.11743139     0.06100
H1652       H  0.77684754  0.23344580  0.13559145     0.08000
H1653       H  0.80583704  0.25914966  0.14164165     0.11500
H1654       H  0.77193351  0.30639544  0.10466997     0.11700
H1655       H  0.74244336  0.28085441  0.09933835     0.08000
C1656       C  0.72011744  0.24845248  0.12808966    -0.11100
C1657       C  0.70323092  0.23438128  0.13196662    -0.10400
C1658       C  0.70422324  0.21321108  0.12469413    -0.01300
C1659       C  0.72208684  0.20642158  0.11297370    -0.11500
C1660       C  0.73931842  0.22034824  0.10965937    -0.09900
H1661       H  0.71935600  0.26452245  0.13448143     0.08000
H1662       H  0.68965940  0.23981441  0.14122545     0.11700
H1663       H  0.72326400  0.19001786  0.10757273     0.11500
H1664       H  0.75350589  0.21457327  0.10161981     0.08000
C1665       C  0.75875892  0.38126104  0.22626896    -0.11100
C1666       C  0.74992090  0.36322874  0.23641463     0.06100
C1667       C  0.75917249  0.34313436  0.23284657    -0.09800
C1668       C  0.77638159  0.34089119  0.21899412    -0.11500
C1669       C  0.78490418  0.35868496  0.20820007    -0.01300
C1670       C  0.77609796  0.37899716  0.21217516    -0.10400
C1671       C  0.73116398  0.36477227  0.25081995     0.06100
H1672       H  0.75307037  0.32903101  0.24085117     0.08000
H1673       H  0.78285568  0.32502447  0.21659389     0.11500
H1674       H  0.78232875  0.39301072  0.20413347     0.11700
H1675       H  0.75194614  0.39695362  0.22884878     0.08000
C1676       C  0.73037819  0.37996964  0.26732506    -0.11100
C1677       C  0.71443351  0.37872910  0.28304243    -0.10400
C1678       C  0.69922456  0.36219116  0.28247240    -0.01300
C1679       C  0.69917232  0.34800971  0.26512559    -0.11500
C1680       C  0.71487204  0.34936429  0.24942227    -0.09900
H1681       H  0.74278036  0.39197561  0.26877330     0.08000
H1682       H  0.71480647  0.38981503  0.29630353     0.11700
H1683       H  0.68741565  0.33531594  0.26413086     0.11500
H1684       H  0.71481713  0.33774786  0.23661255     0.08000
C1685       C  0.89226372  0.74208129  0.77341361    -0.11100
C1686       C  0.88033550  0.74031579  0.75449133     0.06100
C1687       C  0.86808321  0.72187564  0.75091951    -0.09800
C1688       C  0.86603968  0.70644992  0.76676989    -0.11500
C1689       C  0.87638903  0.70901164  0.78644500    -0.01300
C1690       C  0.89035445  0.72639075  0.78935890    -0.10400
C1691       C  0.87746036  0.75872827  0.74002177     0.06100
H1692       H  0.85893568  0.72011272  0.73633778     0.52000
H1693       H  0.85537729  0.69304920  0.76409826     0.11500
H1694       H  0.89841285  0.72868132  0.80448294     0.11700
H1695       H  0.90172679  0.75625920  0.77647646     0.08000
C1696       C  0.85660992  0.76575264  0.73591496    -0.11100
C1697       C  0.85284530  0.78197474  0.72127826    -0.10400
C1698       C  0.86985088  0.79160175  0.71017656    -0.01300
C1699       C  0.89090524  0.78509990  0.71475732    -0.11500
C1700       C  0.89470314  0.76881821  0.72976174    -0.09900
H1701       H  0.84309508  0.75840748  0.74389831     0.08000
H1702       H  0.83642551  0.78656116  0.71830397     0.11700
H1703       H  0.90432086  0.79228113  0.70649803     0.11500
H1704       H  0.91092622  0.76363756  0.73282695     0.08000
C1705       C  0.78383766  0.75584077  0.85901171    -0.11100
C1706       C  0.76763603  0.75360811  0.87434586     0.06100
C1707       C  0.76732723  0.73531694  0.88739357    -0.09800
C1708       C  0.78267748  0.71924901  0.88471107    -0.11500
C1709       C  0.79817259  0.72107135  0.86860278    -0.01300
C1710       C  0.79883124  0.73966102  0.85604803    -0.10400
C1711       C  0.75023099  0.76957016  0.87516523     0.06100
H1712       H  0.75497013  0.73329418  0.89933329     0.08000
H1713       H  0.78180480  0.70498156  0.89448095     0.11500
H1714       H  0.81067020  0.74144981  0.84355308     0.11700
H1715       H  0.78428893  0.76966346  0.84859429     0.08000
C1716       C  0.75498752  0.79149117  0.87449711    -0.11100
C1717       C  0.73874021  0.80648541  0.87157973    -0.10400
C1718       C  0.71740576  0.79983888  0.86910385    -0.01300
C1719       C  0.71252039  0.77796173  0.87101496    -0.11500
C1720       C  0.72880056  0.76296396  0.87406252    -0.09900
H1721       H  0.77139572  0.79695769  0.87549139     0.08000
H1722       H  0.74303323  0.82322156  0.87038710     0.11700
H1723       H  0.69624602  0.77232148  0.86922162     0.11500
H1724       H  0.72476336  0.74612214  0.87433685     0.08000
C1725       C  0.77408195  0.61237685  0.76734723    -0.11100
C1726       C  0.75608301  0.62578282  0.76596980     0.06100
C1727       C  0.75403835  0.64272085  0.78052576    -0.09800
C1728       C  0.77007767  0.64685308  0.79540336    -0.11500
C1729       C  0.78840852  0.63396854  0.79632741    -0.01300
C1730       C  0.79003381  0.61630101  0.78259900    -0.10400
C1731       C  0.74027306  0.62359243  0.74843650     0.06100
H1732       H  0.74050054  0.65347050  0.77972365     0.08000
H1733       H  0.76839304  0.66051341  0.80588896     0.11500
H1734       H  0.80406930  0.60618782  0.78297748     0.11700
H1735       H  0.77599000  0.59915907  0.75636225     0.08000
C1736       C  0.74712191  0.62134546  0.72719201    -0.11100
C1737       C  0.73255359  0.62334114  0.71033419    -0.10400
C1738       C  0.71083986  0.62746820  0.71443242    -0.01300
C1739       C  0.70382876  0.62821733  0.73574585    -0.11500
C1740       C  0.71838298  0.62636570  0.75253405    -0.09900
H1741       H  0.76392513  0.61935215  0.72356227     0.08000
H1742       H  0.73846457  0.62260928  0.69410770     0.11700
H1743       H  0.68721514  0.63126012  0.73951380     0.11500
H1744       H  0.71263027  0.62790629  0.76876348     0.08000
C1745       C  0.04740876  0.70218922  0.04455632    -0.11100
C1746       C  0.06257495  0.71363664  0.05652237     0.06100
C1747       C  0.06356085  0.73593635  0.05442827    -0.09800
C1748       C  0.04956290  0.74664646  0.04078438    -0.11500
C1749       C  0.03433930  0.73529087  0.02871594    -0.01300
C1750       C  0.03349276  0.71289918  0.03067569    -0.10400
C1751       C  0.07714625  0.70254386  0.07150385     0.06100
H1752       H  0.07495859  0.74513827  0.06365520     0.08000
H1753       H  0.05071319  0.76389080  0.03974815     0.11500
H1754       H  0.02201747  0.70365842  0.02160140     0.11700
H1755       H  0.04645288  0.68494519  0.04583998     0.08000
C1756       C  0.06907409  0.68791011  0.08649410    -0.11100
C1757       C  0.08265689  0.67847622  0.10153232    -0.10400
C1758       C  0.10462426  0.68313760  0.10150827    -0.01300
C1759       C  0.11276899  0.69739264  0.08617772    -0.11500
C1760       C  0.09912207  0.70717865  0.07146566    -0.09900
H1761       H  0.05215848  0.68422137  0.08692626     0.08000
H1762       H  0.07600833  0.66749002  0.11314487     0.11700
H1763       H  0.12962656  0.70135399  0.08588718     0.11500
H1764       H  0.10572329  0.71836802  0.06001958     0.08000
C1765       C  0.94657008  0.73813225  0.94962675    -0.11100
C1766       C  0.94691365  0.71588500  0.94723264     0.06100
C1767       C  0.96213575  0.70382537  0.95845242    -0.09800
C1768       C  0.97674847  0.71394125  0.97206943    -0.11500
C1769       C  0.97657136  0.73631687  0.97434773    -0.01300
C1770       C  0.96131101  0.74826091  0.96290953    -0.10400
C1771       C  0.93158383  0.70552376  0.93263844     0.06100
H1772       H  0.96258592  0.68659814  0.95677146     0.08000
H1773       H  0.98827283  0.70428306  0.98062674     0.11500
H1774       H  0.96066320  0.76550803  0.96422097     0.11700
H1775       H  0.93505418  0.74770380  0.94093904     0.08000
C1776       C  0.90952227  0.70823571  0.93560878    -0.11100
C1777       C  0.89499222  0.69950236  0.92106944    -0.10400
C1778       C  0.90232443  0.68832879  0.90304495    -0.01300
C1779       C  0.92445018  0.68556285  0.90019358    -0.11500
C1780       C  0.93894614  0.69391221  0.91499089    -0.09900
H1781       H  0.90357992  0.71721491  0.94913604     0.08000
H1782       H  0.87805330  0.70195937  0.92364270     0.11700
H1783       H  0.93055824  0.67698245  0.88648790     0.11500
H1784       H  0.95593296  0.69183831  0.91236278     0.08000
C1785       C  0.12671967  0.25338999  0.71677447    -0.11100
C1786       C  0.12354675  0.24898610  0.73851983     0.06100
C1787       C  0.12135060  0.22763631  0.74513681    -0.09800
C1788       C  0.12363877  0.21095294  0.73045163    -0.11500
C1789       C  0.12801928  0.21535296  0.70886757    -0.01300
C1790       C  0.12886855  0.23677154  0.70209776    -0.10400
C1791       C  0.12515870  0.26639069  0.75444716     0.06100
H1792       H  0.11908133  0.22381314  0.76184307     0.08000
H1793       H  0.12282987  0.19462558  0.73616350     0.11500
H1794       H  0.13212878  0.24074500  0.68559117     0.11700
H1795       H  0.12827192  0.26973271  0.71124268     0.08000
C1796       C  0.14209364  0.28103951  0.75297783    -0.11100
C1797       C  0.14533201  0.29619979  0.76888991    -0.10400
C1798       C  0.13161622  0.29723400  0.78660304    -0.01300
C1799       C  0.11409429  0.28320740  0.78773010    -0.11500
C1800       C  0.11100976  0.26772689  0.77184091    -0.09900
H1801       H  0.15340840  0.28021251  0.73992223     0.08000
H1802       H  0.15891814  0.30687230  0.76753550     0.11700
H1803       H  0.10333753  0.28365014  0.80126022     0.11500
H1804       H  0.09779442  0.25661714  0.77326903     0.08000
C1805       C  0.22446914  0.25791983  0.85729871    -0.11100
C1806       C  0.23979125  0.25971376  0.87351148     0.06100
C1807       C  0.23783879  0.27610384  0.88871062    -0.09800
C1808       C  0.22149607  0.29138368  0.88673948    -0.11500
C1809       C  0.20712711  0.29033702  0.86951002    -0.01300
C1810       C  0.20835707  0.27305095  0.85530164    -0.10400
C1811       C  0.25879624  0.24578133  0.87257712     0.06100
H1812       H  0.24958686  0.27774959  0.90129708     0.08000
H1813       H  0.22087118  0.30462093  0.89784682     0.11500
H1814       H  0.19730129  0.27168625  0.84205904     0.11700
H1815       H  0.22554972  0.24524443  0.84556913     0.08000
C1816       C  0.26436757  0.23205072  0.88942729    -0.11100
C1817       C  0.28067941  0.21686148  0.88667391    -0.10400
C1818       C  0.29156927  0.21539800  0.86707090    -0.01300
C1819       C  0.28664900  0.23008940  0.85080654    -0.11500
C1820       C  0.27047376  0.24503143  0.85352341    -0.09900
H1821       H  0.25547994  0.23242077  0.90425404     0.08000
H1822       H  0.28415674  0.20576907  0.89948268     0.11700
H1823       H  0.29488208  0.22966521  0.83560591     0.11500
H1824       H  0.26659857  0.25566652  0.84042481     0.08000
C1825       C  0.22249467  0.39426677  0.76074899    -0.11100
C1826       C  0.24076669  0.38125299  0.75993080     0.06100
C1827       C  0.24532249  0.36758832  0.77705292    -0.09800
C1828       C  0.23107891  0.36563930  0.79397258    -0.11500
C1829       C  0.21195758  0.37734475  0.79416972    -0.01300
C1830       C  0.20812369  0.39236480  0.77789853    -0.10400
C1831       C  0.25373855  0.37923100  0.74039101     0.06100
H1832       H  0.25939395  0.35750186  0.77671728     0.08000
H1833       H  0.23445392  0.35404982  0.80638561     0.11500
H1834       H  0.19336904  0.40140256  0.77764084     0.11700
H1835       H  0.21869902  0.40480511  0.74756578     0.08000
C1836       C  0.25425838  0.35938009  0.73007501    -0.11100
C1837       C  0.26914051  0.35541921  0.71407198    -0.10400
C1838       C  0.28395503  0.37122272  0.70803134    -0.01300
C1839       C  0.28251635  0.39163775  0.71737225    -0.11500
C1840       C  0.26746196  0.39561642  0.73352659    -0.09900
H1841       H  0.24369550  0.34658573  0.73510599     0.08000
H1842       H  0.26955039  0.33963450  0.70699271     0.11700
H1843       H  0.29367540  0.40413587  0.71297131     0.11500
H1844       H  0.26730037  0.41101429  0.74141071     0.08000
C1845       C  0.93655184  0.59803154  0.79850485    -0.11100
C1846       C  0.93172379  0.57611294  0.79791418     0.06100
C1847       C  0.91268956  0.56882973  0.80732961    -0.09800
C1848       C  0.89852100  0.58324727  0.81679077    -0.11500
C1849       C  0.90325837  0.60521304  0.81729399    -0.01300
C1850       C  0.92254195  0.61242741  0.80825436    -0.10400
C1851       C  0.94616059  0.56090358  0.78698042     0.06100
H1852       H  0.90853411  0.55202043  0.80690346     0.08000
H1853       H  0.88380208  0.57719958  0.82361895     0.11500
H1854       H  0.92660771  0.62926250  0.80831612     0.11700
H1855       H  0.95119385  0.60400119  0.79144165     0.08000
C1856       C  0.95361434  0.56527842  0.76629250    -0.11100
C1857       C  0.96620389  0.55036700  0.75544790    -0.10400
C1858       C  0.97191880  0.53097248  0.76524097    -0.01300
C1859       C  0.96498064  0.52688980  0.78618169    -0.11500
C1860       C  0.95202918  0.54162046  0.79686298    -0.09900
H1861       H  0.94921205  0.57999135  0.75830075     0.08000
H1862       H  0.97145757  0.55400221  0.73937955     0.11700
H1863       H  0.96911955  0.51206649  0.79410729     0.11500
H1864       H  0.94658292  0.53796788  0.81286566     0.08000
C1865       C  0.04236210  0.45998045  0.79674692    -0.11100
C1866       C  0.05091484  0.44226702  0.78595637     0.06100
C1867       C  0.04488890  0.43854795  0.76470930    -0.09800
C1868       C  0.03099389  0.45255658  0.75426617    -0.11500
C1869       C  0.02258128  0.47045805  0.76492866    -0.01300
C1870       C  0.02819564  0.47385434  0.78639409    -0.10400
C1871       C  0.06652663  0.42798900  0.79659357     0.06100
H1872       H  0.05136492  0.42507525  0.75600525     0.08000
H1873       H  0.02694266  0.44940045  0.73776420     0.11500
H1874       H  0.02200358  0.48746988  0.79506917     0.11700
H1875       H  0.04664975  0.46306781  0.81320506     0.08000
C1876       C  0.08418713  0.43659130  0.80745766    -0.11100
C1877       C  0.09938149  0.42314654  0.81683390    -0.10400
C1878       C  0.09701319  0.40082429  0.81585141    -0.01300
C1879       C  0.07918077  0.39223975  0.80517107    -0.11500
C1880       C  0.06418867  0.40568749  0.79549325    -0.09900
H1881       H  0.08645684  0.45373944  0.80830996     0.08000
H1882       H  0.11296842  0.43023064  0.82488895     0.11700
H1883       H  0.07698664  0.37510439  0.80398830     0.11500
H1884       H  0.05068048  0.39867708  0.78724133     0.08000
C1885       C  0.93493088  0.30727947  0.08509325    -0.11100
C1886       C  0.92712387  0.29804605  0.06620419     0.06100
C1887       C  0.90510397  0.29873181  0.06202043    -0.09800
C1888       C  0.89106859  0.30804856  0.07665071    -0.11500
C1889       C  0.89870206  0.31657778  0.09598711    -0.01300
C1890       C  0.92083761  0.31630500  0.09994012    -0.10400
C1891       C  0.94172465  0.28679040  0.05137300     0.06100
H1892       H  0.89874406  0.29186874  0.04747684     0.08000
H1893       H  0.87413587  0.30801599  0.07305405     0.11500
H1894       H  0.92723780  0.32280638  0.11462353     0.11700
H1895       H  0.95186316  0.30685937  0.08868215     0.08000
C1896       C  0.96043160  0.29670165  0.04390774    -0.11100
C1897       C  0.97426215  0.28581694  0.03012093    -0.10400
C1898       C  0.96986470  0.26464813  0.02390764    -0.01300
C1899       C  0.95114480  0.25476411  0.03146687    -0.11500
C1900       C  0.93713163  0.26579457  0.04489162    -0.09900
H1901       H  0.96424582  0.31291580  0.04863458     0.08000
H1902       H  0.98857568  0.29385818  0.02460802     0.11700
H1903       H  0.94725031  0.23852175  0.02691530     0.11500
H1904       H  0.92286153  0.25777670  0.05056289     0.08000
C1905       C  0.06140510  0.26569426  0.95070318    -0.11100
C1906       C  0.05745159  0.28699126  0.94481255     0.06100
C1907       C  0.03894796  0.29715293  0.95238245    -0.09800
C1908       C  0.02463899  0.28620721  0.96562026    -0.11500
C1909       C  0.02836256  0.26475510  0.97119374    -0.01300
C1910       C  0.04691101  0.25462022  0.96360999    -0.10400
C1911       C  0.07235184  0.29834725  0.93035211     0.06100
H1912       H  0.03562978  0.31360554  0.94812290     0.08000
H1913       H  0.01046519  0.29442309  0.97117620     0.11500
H1914       H  0.05027075  0.23813896  0.96771538     0.11700
H1915       H  0.07549649  0.25747998  0.94493075     0.08000
C1916       C  0.09445743  0.29800146  0.93419659    -0.11100
C1917       C  0.10857942  0.30800557  0.92006076    -0.10400
C1918       C  0.10088642  0.31821452  0.90159306    -0.01300
C1919       C  0.07873211  0.31873644  0.89789170    -0.11500
C1920       C  0.06459130  0.30905276  0.91223652    -0.09900
H1921       H  0.10079072  0.28995409  0.94814089     0.08000
H1922       H  0.12556529  0.30727671  0.92331451     0.11700
H1923       H  0.07233366  0.32652398  0.88383338     0.11500
H1924       H  0.04761058  0.30941291  0.90888053     0.08000
C1925       C  0.04536334  0.55980014  0.23432820    -0.11100
C1926       C  0.05215483  0.55510157  0.21350864     0.06100
C1927       C  0.04423759  0.53666896  0.20340707    -0.09800
C1928       C  0.02962888  0.52327713  0.21392432    -0.11500
C1929       C  0.02309659  0.52783073  0.23491058    -0.01300
C1930       C  0.03116495  0.54623316  0.24497429    -0.10400
C1931       C  0.06754123  0.56949554  0.20260150     0.06100
H1932       H  0.04919893  0.53277112  0.18731756     0.08000
H1933       H  0.02375890  0.50916856  0.20580074     0.11500
H1934       H  0.02640164  0.55023893  0.26109697     0.11700
H1935       H  0.05134398  0.57383661  0.24250741     0.08000
C1936       C  0.06387708  0.59162525  0.20215291    -0.11100
C1937       C  0.07890059  0.60548243  0.19311182    -0.10400
C1938       C  0.09813132  0.59756765  0.18459430    -0.01300
C1939       C  0.10164479  0.57534270  0.18473151    -0.11500
C1940       C  0.08640118  0.56142601  0.19350016    -0.09900
H1941       H  0.04939255  0.59821236  0.20895117     0.08000
H1942       H  0.07565421  0.62248564  0.19328394     0.11700
H1943       H  0.11626115  0.56872619  0.17826868     0.11500
H1944       H  0.08962962  0.54441832  0.19377800     0.08000
C1945       C  0.94733132  0.46147068  0.20328959    -0.11100
C1946       C  0.93792025  0.44429766  0.21429235     0.06100
C1947       C  0.94258024  0.44146878  0.23600930    -0.09800
C1948       C  0.95634590  0.45553870  0.24659039    -0.11500
C1949       C  0.96612482  0.47257927  0.23560317    -0.01300
C1950       C  0.96148362  0.47536064  0.21378769    -0.10400
C1951       C  0.92361783  0.42896232  0.20322524     0.06100
H1952       H  0.93543873  0.42837914  0.24482716     0.08000
H1953       H  0.95954316  0.45285633  0.26336303     0.11500
H1954       H  0.96868207  0.48833404  0.20486145     0.11700
H1955       H  0.94402480  0.46388003  0.18649297     0.08000
C1956       C  0.90492401  0.43592884  0.19293365    -0.11100
C1957       C  0.89087288  0.42110268  0.18363909    -0.10400
C1958       C  0.89554604  0.39909286  0.18404470    -0.01300
C1959       C  0.91456618  0.39229283  0.19390093    -0.11500
C1960       C  0.92830684  0.40703225  0.20357915    -0.09900
H1961       H  0.90095725  0.45277680  0.19256110     0.08000
H1962       H  0.87638782  0.42684516  0.17611677     0.11700
H1963       H  0.91861609  0.37547363  0.19456232     0.11500
H1964       H  0.94266161  0.40131262  0.21137938     0.08000
C1965       C  0.20550908  0.54473577  0.04272736    -0.11100
C1966       C  0.21676123  0.55450553  0.05947652     0.06100
C1967       C  0.23870292  0.55065286  0.06171997    -0.09800
C1968       C  0.24935501  0.53746367  0.04728349    -0.11500
C1969       C  0.23819696  0.52754825  0.03048994    -0.01300
C1970       C  0.21610289  0.53116654  0.02845740    -0.10400
C1971       C  0.20582009  0.56886419  0.07461099     0.06100
H1972       H  0.24766220  0.55814573  0.07449022     0.08000
H1973       H  0.26636136  0.53499152  0.04934378     0.11500
H1974       H  0.20709113  0.52382038  0.01565044     0.11700
H1975       H  0.18853197  0.54750022  0.04081800     0.08000
C1976       C  0.19528484  0.58723774  0.06727655    -0.11100
C1977       C  0.18601310  0.60147039  0.08177843    -0.10400
C1978       C  0.18675871  0.59730882  0.10383740    -0.01300
C1979       C  0.19701378  0.57866815  0.11106302    -0.11500
C1980       C  0.20664023  0.56469242  0.09659069    -0.09900
H1981       H  0.19467916  0.59080397  0.05036044     0.08000
H1982       H  0.17825855  0.61570618  0.07573732     0.11700
H1983       H  0.19798039  0.57509320  0.12795615     0.11500
H1984       H  0.21474441  0.55059859  0.10252589     0.08000
C1985       C  0.20662507  0.45282840  0.96427368    -0.11100
C1986       C  0.21643684  0.44527779  0.94560624     0.06100
C1987       C  0.23756936  0.45137413  0.94113951    -0.09800
C1988       C  0.24866509  0.46494059  0.95498824    -0.11500
C1989       C  0.23871103  0.47301794  0.97341460    -0.01300
C1990       C  0.21758087  0.46673461  0.97794815    -0.10400
C1991       C  0.20464258  0.43130892  0.93059437     0.06100
H1992       H  0.24551568  0.44555618  0.92692823     0.08000
H1993       H  0.26492034  0.46940296  0.95104239     0.11500
H1994       H  0.20950885  0.47253573  0.99208962     0.11700
H1995       H  0.19032666  0.44832244  0.96801840     0.08000
C1996       C  0.19479784  0.41245849  0.93777815    -0.11100
C1997       C  0.18464730  0.39875346  0.92331707    -0.10400
C1998       C  0.18380924  0.40385730  0.90144957    -0.01300
C1999       C  0.19308410  0.42310130  0.89443717    -0.11500
C2000       C  0.20356739  0.43658266  0.90883852    -0.09900
H2001       H  0.19548045  0.40806174  0.95449252     0.08000
H2002       H  0.17763619  0.38406307  0.92922300     0.11700
H2003       H  0.19278037  0.42746039  0.87770497     0.11500
H2004       H  0.21090931  0.45114105  0.90299329     0.08000
C2005       C  0.80490420  0.56966632  0.90915335    -0.11100
C2006       C  0.80151683  0.57509850  0.93059674     0.06100
C2007       C  0.80770762  0.59543764  0.93780430    -0.09800
C2008       C  0.81652639  0.61034559  0.92358642    -0.11500
C2009       C  0.81959777  0.60503498  0.90197761    -0.01300
C2010       C  0.81398633  0.58439121  0.89503969    -0.10400
C2011       C  0.79055762  0.55986590  0.94502899     0.06100
H2012       H  0.80512306  0.59998717  0.95427597     0.08000
H2013       H  0.82072773  0.62607580  0.92945952     0.11500
H2014       H  0.81617735  0.57971725  0.87854990     0.11700
H2015       H  0.80036710  0.55401590  0.90329333     0.08000
C2016       C  0.77075262  0.55114383  0.93910139    -0.11100
C2017       C  0.76005546  0.53697681  0.95264748    -0.10400
C2018       C  0.76915069  0.53085739  0.97222750    -0.01300
C2019       C  0.78914900  0.53934684  0.97803978    -0.11500
C2020       C  0.79964588  0.55394774  0.96465689    -0.09900
H2021       H  0.76339573  0.55558102  0.92408945     0.08000
H2022       H  0.74468504  0.53069715  0.94772587     0.11700
H2023       H  0.79645012  0.53503861  0.99310974     0.11500
H2024       H  0.81494419  0.56046002  0.96950128     0.08000
C2025       C  0.79765044  0.45298064  0.03873315    -0.11100
C2026       C  0.78713547  0.44650695  0.05749766     0.06100
C2027       C  0.76711018  0.45535887  0.06233866    -0.09800
C2028       C  0.75754759  0.47001144  0.04851632    -0.11500
C2029       C  0.76793575  0.47643564  0.02968822    -0.01300
C2030       C  0.78822877  0.46801333  0.02504781    -0.10400
C2031       C  0.79673941  0.43041188  0.07200921     0.06100
H2032       H  0.75860288  0.45053824  0.07661165     0.08000
H2033       H  0.74190977  0.47625262  0.05252469     0.11500
H2034       H  0.79651076  0.47256941  0.01056225     0.11700
H2035       H  0.81316713  0.44645826  0.03472111     0.08000
C2036       C  0.80485442  0.41107938  0.06401662    -0.11100
C2037       C  0.81293281  0.39551975  0.07793507    -0.10400
C2038       C  0.81330650  0.39911335  0.10011140    -0.01300
C2039       C  0.80539250  0.41859536  0.10800043    -0.11500
C2040       C  0.79711344  0.43400326  0.09412174    -0.09900
H2041       H  0.80452451  0.40783354  0.04704513     0.08000
H2042       H  0.81887732  0.38068431  0.07132219     0.11700
H2043       H  0.80541531  0.42189858  0.12496168     0.11500
H2044       H  0.79104762  0.44882397  0.10067335     0.08000
C2045       C  0.84104959  0.01828005  0.01745508    -0.11100
C2046       C  0.85217474  0.00043237  0.00964631     0.06100
C2047       C  0.84055166  0.98286320  0.00193016    -0.09800
C2048       C  0.81821757  0.98333625  0.00147901    -0.11500
C2049       C  0.80700500  0.00125483  0.00908502    -0.01300
C2050       C  0.81866723  0.01861036  0.01737422    -0.10400
C2051       C  0.87584030  0.00037487  0.00869583     0.06100
H2052       H  0.84879060  0.96898635  0.99569777     0.08000
H2053       H  0.80973179  0.96966945  0.99507757     0.11500
H2054       H  0.81052169  0.03265539  0.02333437     0.11700
H2055       H  0.84970282  0.03197519  0.02357517     0.08000
C2056       C  0.88682794  0.01734604  0.99893138    -0.11100
C2057       C  0.90907927  0.01673098  0.99678296    -0.10400
C2058       C  0.92083494  0.99928325  0.00468001    -0.01300
C2059       C  0.90982616  0.98252755  0.01490705    -0.11500
C2060       C  0.88753319  0.98298084  0.01670780    -0.09900
H2061       H  0.87812366  0.03085813  0.99250658     0.08000
H2062       H  0.91708889  0.02997002  0.98899880     0.11700
H2063       H  0.91841260  0.96891382  0.02126351     0.11500
H2064       H  0.87939203  0.96975990  0.02439384     0.08000
C2065       C  0.00225689  0.88325079  0.01824757    -0.11100
C2066       C  0.00843633  0.87213228  0.99981288     0.06100
C2067       C  0.01413243  0.88369081  0.98144338    -0.09800
C2068       C  0.01370402  0.90603099  0.98155722    -0.11500
C2069       C  0.00715075  0.91712269  0.99991049    -0.01300
C2070       C  0.00144826  0.90553725  0.01824228    -0.10400
C2071       C  0.00857888  0.84851432  0.99974637     0.06100
H2072       H  0.01907546  0.87543151  0.96708727     0.08000
H2073       H  0.01816326  0.91461876  0.96721155     0.11500
H2074       H  0.99649751  0.91372668  0.03263786     0.11700
H2075       H  0.99765867  0.87466206  0.03255080     0.08000
C2076       C  0.01793940  0.83718475  0.01667970    -0.11100
C2077       C  0.01758329  0.81486920  0.01692467    -0.10400
C2078       C  0.00761072  0.80347305  0.00036321    -0.01300
C2079       C  0.99825444  0.81485327  0.98341121    -0.11500
C2080       C  0.99886895  0.83716742  0.98303910    -0.09900
H2081       H  0.02563146  0.84562040  0.02967376     0.08000
H2082       H  0.02489205  0.80656092  0.03022270     0.11700
H2083       H  0.99051235  0.80652566  0.97038234     0.11500
H2084       H  0.99138199  0.84558773  0.96990875     0.08000
C2085       C  0.98634099  0.99943468  0.88327997    -0.11100
C2086       C  0.00477709  0.99206899  0.87279520     0.06100
C2087       C  0.02278405  0.98655051  0.88495379    -0.09800
C2088       C  0.02240380  0.98837418  0.90715358    -0.11500
C2089       C  0.00408261  0.99600148  0.91768582    -0.01300
C2090       C  0.98604361  0.00153610  0.90551446    -0.10400
C2091       C  0.00550221  0.99082951  0.84919480     0.06100
H2092       H  0.03713593  0.98069748  0.87726575     0.08000
H2093       H  0.03655984  0.98394684  0.91606536     0.11500
H2094       H  0.97166351  0.00734303  0.91317701     0.11700
H2095       H  0.97230961  0.00396840  0.87422644     0.08000
C2096       C  0.98854385  0.98169269  0.83768300    -0.11100
C2097       C  0.98893990  0.98136998  0.81536617    -0.10400
C2098       C  0.00616230  0.99048069  0.80412436    -0.01300
C2099       C  0.02328647  0.99926775  0.81570487    -0.11500
C2100       C  0.02301574  0.99931386  0.83799803    -0.09900
H2101       H  0.97496978  0.97483909  0.84596742     0.08000
H2102       H  0.97551159  0.97444255  0.80692837     0.11700
H2103       H  0.03684774  0.00628721  0.80754165     0.11500
H2104       H  0.03625072  0.00653729  0.84650299     0.08000
C2105       C  0.00677706  0.16289754  0.97843557    -0.11100
C2106       C  0.99833966  0.15132699  0.99571605     0.06100
C2107       C  0.98937834  0.16254578  0.01293759    -0.09800
C2108       C  0.98897581  0.18488935  0.01296541    -0.11500
C2109       C  0.99782676  0.19650889  0.99591195    -0.01300
C2110       C  0.00668900  0.18527108  0.97861144    -0.10400
C2111       C  0.99932133  0.12763948  0.99609399     0.06100
H2112       H  0.98260145  0.15399484  0.02637142     0.08000
H2113       H  0.98207184  0.19306781  0.02653888     0.11500
H2114       H  0.01353478  0.19377111  0.96518496     0.11700
H2115       H  0.01388455  0.15462948  0.96502119     0.08000
C2116       C  0.99329420  0.11556951  0.97816781    -0.11100
C2117       C  0.99399378  0.09320315  0.97879018    -0.10400
C2118       C  0.00110738  0.08251840  0.99722305    -0.01300
C2119       C  0.00738075  0.09464211  0.01502239    -0.11500
C2120       C  0.00634577  0.11694357  0.01451388    -0.09900
H2121       H  0.98772713  0.12343898  0.96380644     0.08000
H2122       H  0.98911555  0.08427864  0.96480807     0.11700
H2123       H  0.01286198  0.08687274  0.02947236     0.11500
H2124       H  0.01128003  0.12587747  0.02847345     0.08000
C2125       C  0.16681979  0.98687903  0.01709101    -0.11100
C2126       C  0.15536677  0.00248094  0.00576390     0.06100
C2127       C  0.16658856  0.01824713  0.99442344    -0.09800
C2128       C  0.18890963  0.01824186  0.99411888    -0.11500
C2129       C  0.20047101  0.00261808  0.00539627    -0.01300
C2130       C  0.18917280  0.98704199  0.01706045    -0.10400
C2131       C  0.13174611  0.00216139  0.00540198     0.06100
H2132       H  0.15804995  0.03033911  0.98545416     0.08000
H2133       H  0.19709393  0.03048944  0.98501305     0.11500
H2134       H  0.19757644  0.97478446  0.02591822     0.11700
H2135       H  0.15844754  0.97464014  0.02604576     0.08000
C2136       C  0.12073670  0.98340701  0.99986674    -0.11100
C2137       C  0.09843021  0.98335670  0.99860511    -0.10400
C2138       C  0.08673209  0.00194144  0.00330826    -0.01300
C2139       C  0.09776010  0.02058335  0.00924749    -0.11500
C2140       C  0.12009085  0.02075171  0.01005076    -0.09900
H2141       H  0.12943148  0.96892806  0.99610379     0.08000
H2142       H  0.09031227  0.96872481  0.99413467     0.11700
H2143       H  0.08912874  0.03511793  0.01293548     0.11500
H2144       H  0.12829167  0.03536597  0.01443688     0.08000
C2145       C  0.01908723  0.00711325  0.11757029    -0.11100
C2146       C  0.00158111  0.99768364  0.12804198     0.06100
C2147       C  0.98492873  0.98894179  0.11584303    -0.09800
C2148       C  0.98576577  0.98953100  0.09359388    -0.11500
C2149       C  0.00311806  0.99918670  0.08305998    -0.01300
C2150       C  0.01975982  0.00804267  0.09525836    -0.10400
C2151       C  0.00050815  0.99713258  0.15164009     0.06100
H2152       H  0.97134838  0.98144924  0.12355115     0.08000
H2153       H  0.97268301  0.98260194  0.08462376     0.11500
H2154       H  0.03336720  0.01548715  0.08755904     0.11700
H2155       H  0.03206674  0.01406167  0.12667192     0.08000
C2156       C  0.01807371  0.99012161  0.16368237    -0.11100
C2157       C  0.01698981  0.98957625  0.18596601    -0.10400
C2158       C  0.99842858  0.99636836  0.19666498    -0.01300
C2159       C  0.98086053  0.00338246  0.18455408    -0.11500
C2160       C  0.98184096  0.00360435  0.16226652    -0.09900
H2161       H  0.03256582  0.98486778  0.15582586     0.08000
H2162       H  0.03081030  0.98409987  0.19481733     0.11700
H2163       H  0.96630486  0.00862687  0.19229138     0.11500
H2164       H  0.96811668  0.00916340  0.15330972     0.08000
C2165       C  0.00059586  0.61202603  0.51894994    -0.11100
C2166       C  0.99614233  0.62324736  0.50003382     0.06100
C2167       C  0.99164739  0.61172999  0.48133527    -0.09800
C2168       C  0.99158261  0.58940063  0.48155207    -0.11500
C2169       C  0.99639529  0.57819240  0.50038067    -0.01300
C2170       C  0.00091414  0.58969069  0.51907583    -0.10400
C2171       C  0.99654435  0.64690521  0.49974352     0.06100
H2172       H  0.98801632  0.62001898  0.46659262     0.08000
H2173       H  0.98810918  0.58089191  0.46690724     0.11500
H2174       H  0.00455420  0.58140290  0.53381876     0.11700
H2175       H  0.00425450  0.62054984  0.53353879     0.08000
C2176       C  0.98652976  0.65863339  0.51599604    -0.11100
C2177       C  0.98727199  0.68095445  0.51592674    -0.10400
C2178       C  0.99826260  0.69199546  0.49972220    -0.01300
C2179       C  0.00820437  0.68022070  0.48341742    -0.11500
C2180       C  0.00724866  0.65790413  0.48337036    -0.09900
H2181       H  0.97801440  0.65051811  0.52869287     0.08000
H2182       H  0.97945953  0.68953647  0.52873510     0.11700
H2183       H  0.01674164  0.68823656  0.47067591     0.11500
H2184       H  0.01524532  0.64920696  0.47074889     0.08000
C2185       C  0.83522142  0.51310163  0.50625170    -0.11100
C2186       C  0.84595098  0.49558709  0.49727325     0.06100
C2187       C  0.83400427  0.47883531  0.48834663    -0.09800
C2188       C  0.81166413  0.47977188  0.48806832    -0.11500
C2189       C  0.80086454  0.49729571  0.49709123    -0.01300
C2190       C  0.81289499  0.51386426  0.50634465    -0.10400
C2191       C  0.86957933  0.49499594  0.49706598     0.06100
H2192       H  0.84198369  0.46521226  0.48127435     0.08000
H2193       H  0.80285007  0.46669952  0.48092242     0.11500
H2194       H  0.80506736  0.52757428  0.51340992     0.11700
H2195       H  0.84415311  0.52612637  0.51335183     0.08000
C2196       C  0.88120676  0.51239502  0.48896408    -0.11100
C2197       C  0.90353468  0.51215936  0.48912693    -0.10400
C2198       C  0.91467970  0.49467580  0.49777597    -0.01300
C2199       C  0.90300374  0.47720042  0.50580165    -0.11500
C2200       C  0.88063862  0.47727686  0.50525417    -0.09900
H2201       H  0.87297324  0.52614768  0.48242312     0.08000
H2202       H  0.91207136  0.52584657  0.48281508     0.11700
H2203       H  0.91115474  0.46345537  0.51244801     0.11500
H2204       H  0.87195240  0.46370992  0.51162763     0.08000
C2205       C  0.97754505  0.50759453  0.66337178    -0.11100
C2206       C  0.99417723  0.49761217  0.65209120     0.06100
C2207       C  0.01083939  0.48791786  0.66353922    -0.09800
C2208       C  0.01096524  0.48824736  0.68582572    -0.11500
C2209       C  0.99460918  0.49861520  0.69718778    -0.01300
C2210       C  0.97786228  0.50828056  0.68572390    -0.10400
C2211       C  0.99448630  0.49754156  0.62843156     0.06100
H2212       H  0.02374128  0.47996769  0.65519671     0.08000
H2213       H  0.02409669  0.48065072  0.69414952     0.11500
H2214       H  0.96496807  0.51627820  0.69402095     0.11700
H2215       H  0.96455117  0.51522996  0.65486805     0.08000
C2216       C  0.97657324  0.49076433  0.61673666    -0.11100
C2217       C  0.97728034  0.49003730  0.59440235    -0.10400
C2218       C  0.99576922  0.49649780  0.58333236    -0.01300
C2219       C  0.01353101  0.50362749  0.59508990    -0.11500
C2220       C  0.01296034  0.50394475  0.61739771    -0.09900
H2221       H  0.96218271  0.48566562  0.62490456     0.08000
H2222       H  0.96329145  0.48459573  0.58578362     0.11700
H2223       H  0.02799247  0.50871137  0.58704397     0.11500
H2224       H  0.02692492  0.50936841  0.62607435     0.08000
C2225       C  0.11480086  0.51531554  0.50643532    -0.11100
C2226       C  0.12612285  0.49825022  0.49723106     0.06100
C2227       C  0.11460607  0.48100019  0.48863913    -0.09800
C2228       C  0.09228262  0.48068515  0.48936309    -0.11500
C2229       C  0.08090068  0.49749537  0.49895055    -0.01300
C2230       C  0.09240876  0.51486892  0.50743928    -0.10400
C2231       C  0.14987619  0.49801536  0.49699389     0.06100
H2232       H  0.12291205  0.46775311  0.48124160     0.08000
H2233       H  0.08393718  0.46710687  0.48259931     0.11500
H2234       H  0.08411096  0.52814465  0.51478393     0.11700
H2235       H  0.12329639  0.52877135  0.51325461     0.08000
C2236       C  0.16161883  0.51603990  0.49044234    -0.11100
C2237       C  0.18401432  0.51540156  0.48978227    -0.10400
C2238       C  0.19508241  0.49689161  0.49612274    -0.01300
C2239       C  0.18331157  0.47900299  0.50292198    -0.11500
C2240       C  0.16097577  0.47949816  0.50317215    -0.09900
H2241       H  0.15345683  0.53048126  0.48550691     0.08000
H2242       H  0.19268375  0.52947420  0.48459161     0.11700
H2243       H  0.19138395  0.46450463  0.50784322     0.11500
H2244       H  0.15233905  0.46543832  0.50845531     0.08000
C2245       C  0.98708996  0.37869273  0.51567825    -0.11100
C2246       C  0.99649128  0.36762543  0.49860446     0.06100
C2247       C  0.00615004  0.37927970  0.48205599    -0.09800
C2248       C  0.00666754  0.40159899  0.48268629    -0.11500
C2249       C  0.99726662  0.41274174  0.49974592    -0.01300
C2250       C  0.98732385  0.40104876  0.51616785    -0.10400
C2251       C  0.99666078  0.34396706  0.49821609     0.06100
H2252       H  0.01364433  0.37108256  0.46880541     0.08000
H2253       H  0.01433810  0.41013153  0.46973251     0.11500
H2254       H  0.97988706  0.40916443  0.52949541     0.11700
H2255       H  0.97942254  0.37002733  0.52854924     0.08000
C2256       C  0.00330323  0.33238404  0.51622548    -0.11100
C2257       C  0.00434350  0.31007658  0.51560743    -0.10400
C2258       C  0.99840457  0.29890046  0.49707418    -0.01300
C2259       C  0.99139362  0.31050467  0.47917709    -0.11500
C2260       C  0.99070948  0.33283838  0.47968693    -0.09900
H2261       H  0.00811610  0.34063400  0.53064077     0.08000
H2262       H  0.00970281  0.30157607  0.52968536     0.11700
H2263       H  0.98674841  0.30234301  0.46466038     0.11500
H2264       H  0.98542269  0.34144247  0.46564142     0.08000
C2265       C  0.01464135  0.48735495  0.38269450    -0.11100
C2266       C  0.99814677  0.49803041  0.37181366     0.06100
C2267       C  0.98199098  0.50804959  0.38367314    -0.09800
C2268       C  0.98226584  0.50742438  0.40595243    -0.11500
C2269       C  0.99857544  0.49652912  0.41692653    -0.01300
C2270       C  0.01477326  0.48646760  0.40504444    -0.10400
C2271       C  0.99753200  0.49855690  0.34815303     0.06100
H2272       H  0.96921204  0.51654800  0.37567091     0.08000
H2273       H  0.96956259  0.51537601  0.41458334     0.11500
H2274       H  0.02759100  0.47800272  0.41300794     0.11700
H2275       H  0.02722081  0.47940188  0.37388464     0.08000
C2276       C  0.01575666  0.50423161  0.33633905    -0.11100
C2277       C  0.01495420  0.50506743  0.31402482    -0.10400
C2278       C  0.99604239  0.49977981  0.30308679    -0.01300
C2279       C  0.97787867  0.49394579  0.31492534    -0.11500
C2280       C  0.97855890  0.49355159  0.33723089    -0.09900
H2281       H  0.03052620  0.50830644  0.34439675     0.08000
H2282       H  0.02922618  0.50954281  0.30531001     0.11700
H2283       H  0.96306726  0.48988801  0.30693712     0.11500
H2284       H  0.96431549  0.48904019  0.34597716     0.08000
C2285       C  0.48751747  0.88086377  0.48323912    -0.11100
C2286       C  0.49789145  0.86972798  0.49976904     0.06100
C2287       C  0.50748195  0.88149077  0.51631763    -0.09800
C2288       C  0.50688700  0.90380969  0.51626112    -0.11500
C2289       C  0.49653237  0.91493434  0.49974637    -0.01300
C2290       C  0.48678009  0.90321530  0.48326734    -0.10400
C2291       C  0.49871292  0.84596042  0.49984656     0.06100
H2292       H  0.51525492  0.87343978  0.52949970     0.08000
H2293       H  0.51443816  0.91235084  0.52926781     0.11500
H2294       H  0.47880558  0.91131790  0.47023182     0.11700
H2295       H  0.48023358  0.87231940  0.47009274     0.08000
C2296       C  0.48103438  0.83380485  0.49310461    -0.11100
C2297       C  0.48175029  0.81146378  0.49350830    -0.10400
C2298       C  0.50008290  0.80078024  0.50085355    -0.01300
C2299       C  0.51777215  0.81290385  0.50753566    -0.11500
C2300       C  0.51714130  0.83521849  0.50692057    -0.09900
H2301       H  0.46648329  0.84155160  0.48785961     0.08000
H2302       H  0.46781540  0.80256276  0.48836370     0.11700
H2303       H  0.53223078  0.80514601  0.51303572     0.11500
H2304       H  0.53119337  0.84406158  0.51182027     0.08000
C2305       C  0.66071504  0.98641995  0.51469104    -0.11100
C2306       C  0.64923998  0.99441365  0.49707175     0.06100
C2307       C  0.66085557  0.00264367  0.47964178    -0.09800
C2308       C  0.68320104  0.00341076  0.48006437    -0.11500
C2309       C  0.69457483  0.99562454  0.49775786    -0.01300
C2310       C  0.68308418  0.98687423  0.51495519    -0.10400
C2311       C  0.62532926  0.99466385  0.49706910     0.06100
H2312       H  0.65271217  0.00844141  0.46554657     0.08000
H2313       H  0.69158031  0.00997077  0.46641876     0.11500
H2314       H  0.69136151  0.98078894  0.52886653     0.11700
H2315       H  0.65245074  0.98025972  0.52856931     0.08000
C2316       C  0.61351680  0.97851265  0.50741430    -0.11100
C2317       C  0.59114172  0.97916788  0.50786289    -0.10400
C2318       C  0.57995569  0.99582826  0.49774384    -0.01300
C2319       C  0.59169228  0.01181092  0.48718208    -0.11500
C2320       C  0.61405036  0.01132408  0.48697857    -0.09900
H2321       H  0.62151152  0.96519968  0.51502398     0.08000
H2322       H  0.58259198  0.96649538  0.51600434     0.11700
H2323       H  0.58360083  0.02493988  0.47932985     0.11500
H2324       H  0.62246799  0.02431132  0.47923232     0.08000
C2325       C  0.48577816  0.01574943  0.66242586    -0.11100
C2326       C  0.49629458  0.99947465  0.65104215     0.06100
C2327       C  0.50658080  0.98316751  0.66263073    -0.09800
C2328       C  0.50657393  0.98328139  0.68494825    -0.11500
C2329       C  0.49605742  0.99955632  0.69626341    -0.01300
C2330       C  0.48554469  0.01571085  0.68473561    -0.10400
C2331       C  0.49653416  0.99950196  0.62723209     0.06100
H2332       H  0.51446136  0.97012309  0.65448030     0.08000
H2333       H  0.51467867  0.97049406  0.69333353     0.11500
H2334       H  0.47741192  0.02857629  0.69294474     0.11700
H2335       H  0.47800218  0.02878123  0.65412822     0.08000
C2336       C  0.47879923  0.00693784  0.61556983    -0.11100
C2337       C  0.47901154  0.00691218  0.59325633    -0.10400
C2338       C  0.49681456  0.99913529  0.58202998    -0.01300
C2339       C  0.51454449  0.99169973  0.59359995    -0.11500
C2340       C  0.51447594  0.99203283  0.61591843    -0.09900
H2341       H  0.46454971  0.01245633  0.62365011     0.08000
H2342       H  0.46504573  0.01262701  0.58478461     0.11700
H2343       H  0.52859314  0.98582797  0.58538991     0.11500
H2344       H  0.52861285  0.98662723  0.62428410     0.08000
C2345       C  0.50808001  0.11485608  0.48432619    -0.11100
C2346       C  0.49825586  0.12584389  0.50130122     0.06100
C2347       C  0.48797414  0.11387210  0.51730451    -0.09800
C2348       C  0.48749566  0.09158238  0.51636986    -0.11500
C2349       C  0.49754343  0.08063269  0.49957728    -0.01300
C2350       C  0.50784702  0.09250248  0.48354905    -0.10400
C2351       C  0.49881905  0.14963768  0.50243947     0.06100
H2352       H  0.48059369  0.12167281  0.53083211     0.08000
H2353       H  0.47952256  0.08290635  0.52904865     0.11500
H2354       H  0.51558688  0.08452983  0.47030993     0.11700
H2355       H  0.51578464  0.12350844  0.47148358     0.08000
C2356       C  0.51676538  0.16108900  0.49516253    -0.11100
C2357       C  0.51723225  0.18340594  0.49612257    -0.10400
C2358       C  0.49988351  0.19483624  0.50463073    -0.01300
C2359       C  0.48206728  0.18343500  0.51218786    -0.11500
C2360       C  0.48146990  0.16113214  0.51095695    -0.09900
H2361       H  0.53061633  0.15282454  0.48894339     0.08000
H2362       H  0.53129770  0.19169464  0.49033791     0.11700
H2363       H  0.46837760  0.19175826  0.51870628     0.11500
H2364       H  0.46721345  0.15294912  0.51637679     0.08000
C2365       C  0.33259749  0.00938077  0.51766217    -0.11100
C2366       C  0.34377097  0.99899651  0.50115729     0.06100
C2367       C  0.33189223  0.98858562  0.48515382    -0.09800
C2368       C  0.30953937  0.98833747  0.48577272    -0.11500
C2369       C  0.29841981  0.99870104  0.50227504    -0.01300
C2370       C  0.31022664  0.00932978  0.51815036    -0.10400
C2371       C  0.36765669  0.99887353  0.50069502     0.06100
H2372       H  0.33983982  0.98080078  0.47194145     0.08000
H2373       H  0.30097190  0.98017674  0.47315666     0.11500
H2374       H  0.30219725  0.01741316  0.53114656     0.11700
H2375       H  0.34111698  0.01727121  0.53046720     0.08000
C2376       C  0.37947716  0.01660276  0.50796201    -0.11100
C2377       C  0.40185481  0.01634198  0.50770980    -0.10400
C2378       C  0.41300089  0.99848357  0.49989456    -0.01300
C2379       C  0.40125840  0.98083657  0.49248384    -0.11500
C2380       C  0.37889535  0.98095940  0.49302785    -0.09900
H2381       H  0.37146628  0.03084185  0.51360970     0.08000
H2382       H  0.41044019  0.03026727  0.51338780     0.11700
H2383       H  0.40937234  0.96675682  0.48655437     0.11500
H2384       H  0.37043887  0.96682770  0.48771217     0.08000
C2385       C  0.50015906  0.01963473  0.33647987    -0.11100
C2386       C  0.49474078  0.00063113  0.34727073     0.06100
C2387       C  0.48934885  0.98248659  0.33517947    -0.09800
C2388       C  0.48933754  0.98333883  0.31289220    -0.11500
C2389       C  0.49497220  0.00226884  0.30216603    -0.01300
C2390       C  0.50043055  0.02039529  0.31417384    -0.10400
C2391       C  0.49495808  0.99969863  0.37101208     0.06100
H2392       H  0.48546079  0.96750098  0.34292845     0.08000
H2393       H  0.48525416  0.96904202  0.30403715     0.11500
H2394       H  0.50462084  0.03525349  0.30632060     0.11700
H2395       H  0.50400675  0.03401954  0.34528094     0.08000
C2396       C  0.51076050  0.01063648  0.38263945    -0.11100
C2397       C  0.51096398  0.00997309  0.40491849    -0.10400
C2398       C  0.49544073  0.99824959  0.41617903    -0.01300
C2399       C  0.47973153  0.98711767  0.40458965    -0.11500
C2400       C  0.47946459  0.98787386  0.38226351    -0.09900
H2401       H  0.52317950  0.01954634  0.37450914     0.08000
H2402       H  0.52339050  0.01860948  0.41332044     0.11700
H2403       H  0.46749952  0.97798983  0.41276704     0.11500
H2404       H  0.46690776  0.97946671  0.37383332     0.08000
C2405       C  0.49267105  0.62362184  0.00793843    -0.11100
C2406       C  0.51071524  0.63427631  0.99976932     0.06100
C2407       C  0.52768646  0.62205698  0.99156570    -0.09800
C2408       C  0.52655205  0.59971747  0.99147821    -0.11500
C2409       C  0.50853038  0.58914392  0.99977514    -0.01300
C2410       C  0.49164787  0.60133488  0.00807081    -0.10400
C2411       C  0.51153517  0.65803103  0.99961105     0.06100
H2412       H  0.54190890  0.62973651  0.98540418     0.08000
H2413       H  0.53987645  0.59070900  0.98507332     0.11500
H2414       H  0.47746124  0.59365711  0.01433645     0.11700
H2415       H  0.47909965  0.63252725  0.01393986     0.08000
C2416       C  0.52033551  0.66921153  0.98221079    -0.11100
C2417       C  0.51982720  0.69156891  0.98158961    -0.10400
C2418       C  0.51035811  0.70319405  0.99828606    -0.01300
C2419       C  0.50209668  0.69202717  0.01591771    -0.11500
C2420       C  0.50277977  0.66974530  0.01662202    -0.09900
H2421       H  0.52703519  0.66068268  0.96875066     0.08000
H2422       H  0.52633354  0.69969868  0.96778360     0.11700
H2423       H  0.49498382  0.70049985  0.02920341     0.11500
H2424       H  0.49634587  0.66167563  0.03050038     0.08000
C2425       C  0.62000019  0.48476518  0.00721572    -0.11100
C2426       C  0.63176694  0.50119193  0.99728213     0.06100
C2427       C  0.62058690  0.51793980  0.98732213    -0.09800
C2428       C  0.59826848  0.51829588  0.98731028    -0.11500
C2429       C  0.58652411  0.50202676  0.99744089    -0.01300
C2430       C  0.59763200  0.48523215  0.00738141    -0.10400
C2431       C  0.65557121  0.50115038  0.99761179     0.06100
H2432       H  0.62907656  0.53106467  0.97987736     0.08000
H2433       H  0.59021405  0.53155922  0.97964663     0.11500
H2434       H  0.58904183  0.47239185  0.01521071     0.11700
H2435       H  0.62806568  0.47144207  0.01474699     0.08000
C2436       C  0.66674524  0.49401648  0.01573667    -0.11100
C2437       C  0.68907467  0.49445184  0.01624866    -0.10400
C2438       C  0.70078110  0.50225373  0.99874613    -0.01300
C2439       C  0.68967275  0.50936396  0.98060798    -0.11500
C2440       C  0.66733765  0.50868759  0.97999134    -0.09900
H2441       H  0.65823883  0.48847170  0.02973452     0.08000
H2442       H  0.69716150  0.48899162  0.03052745     0.11700
H2443       H  0.69824811  0.51524266  0.96677727     0.11500
H2444       H  0.65929585  0.51393356  0.96561746     0.08000
C2445       C  0.48375469  0.49768978  0.88320295    -0.11100
C2446       C  0.49955092  0.50811322  0.87109962     0.06100
C2447       C  0.51613085  0.51888209  0.88183513    -0.09800
C2448       C  0.51698521  0.51901757  0.90412737    -0.11500
C2449       C  0.50138780  0.50822382  0.91615131    -0.01300
C2450       C  0.48471979  0.49765478  0.90543601    -0.10400
C2451       C  0.49880534  0.50752597  0.84740068     0.06100
H2452       H  0.52872093  0.52684754  0.87302790     0.08000
H2453       H  0.53004220  0.52728826  0.91192100     0.11500
H2454       H  0.47231971  0.48936513  0.91423333     0.11700
H2455       H  0.47050052  0.48965410  0.87550922     0.08000
C2456       C  0.49168359  0.48908906  0.83666118    -0.11100
C2457       C  0.49091680  0.48852620  0.81439343    -0.10400
C2458       C  0.49757723  0.50625898  0.80236717    -0.01300
C2459       C  0.50478329  0.52465026  0.81303947    -0.11500
C2460       C  0.50524929  0.52533522  0.83530092    -0.09900
H2461       H  0.48699751  0.47492758  0.84544232     0.08000
H2462       H  0.48547328  0.47406686  0.80659137     0.11700
H2463       H  0.50983284  0.53864834  0.80417862     0.11500
H2464       H  0.51043453  0.53992586  0.84301683     0.08000
C2465       C  0.52095218  0.49741295  0.11491518    -0.11100
C2466       C  0.50290886  0.50430044  0.12640102     0.06100
C2467       C  0.48494203  0.51154007  0.11497994    -0.09800
C2468       C  0.48513460  0.51217694  0.09268185    -0.11500
C2469       C  0.50317413  0.50529961  0.08127775    -0.01300
C2470       C  0.52102040  0.49776418  0.09260888    -0.10400
C2471       C  0.50285382  0.50406437  0.15016653     0.06100
H2472       H  0.47060836  0.51652954  0.12326249     0.08000
H2473       H  0.47104369  0.51779115  0.08434948     0.11500
H2474       H  0.53519456  0.49246238  0.08422576     0.11700
H2475       H  0.53518561  0.49205899  0.12315489     0.08000
C2476       C  0.51297647  0.48752540  0.16154094    -0.11100
C2477       C  0.51284409  0.48731389  0.18385959    -0.10400
C2478       C  0.50245691  0.50355572  0.19536609    -0.01300
C2479       C  0.49240313  0.52012879  0.18400116    -0.11500
C2480       C  0.49266175  0.52041531  0.16170153    -0.09900
H2481       H  0.52072090  0.47451208  0.15320422     0.08000
H2482       H  0.52068157  0.47425668  0.19207751     0.11700
H2483       H  0.48439223  0.53299740  0.19232196     0.11500
H2484       H  0.48506777  0.53362310  0.15350581     0.08000
C2485       C  0.34027717  0.49662926  0.98199075    -0.11100
C2486       C  0.35143432  0.50838157  0.99758461     0.06100
C2487       C  0.33963319  0.51905688  0.01341546    -0.09800
C2488       C  0.31733893  0.51769338  0.01380723    -0.11500
C2489       C  0.30625091  0.50550575  0.99852558    -0.01300
C2490       C  0.31798481  0.49508679  0.98251085    -0.10400
C2491       C  0.37525700  0.50889020  0.99774867     0.06100
H2492       H  0.34759114  0.52798513  0.02582747     0.08000
H2493       H  0.30880470  0.52595796  0.02643488     0.11500
H2494       H  0.30999189  0.48577472  0.97039944     0.11700
H2495       H  0.34878394  0.48857450  0.96922752     0.08000
C2496       C  0.38694306  0.49073800  0.99152912    -0.11100
C2497       C  0.40923405  0.49096303  0.99169677    -0.10400
C2498       C  0.42048167  0.50916443  0.99844611    -0.01300
C2499       C  0.40894354  0.52729039  0.00492910    -0.11500
C2500       C  0.38655284  0.52720319  0.00441953    -0.09900
H2501       H  0.37890049  0.47618473  0.98685021     0.08000
H2502       H  0.41771089  0.47663341  0.98684442     0.11700
H2503       H  0.41720434  0.54156984  0.01007052     0.11500
H2504       H  0.37811563  0.54160229  0.00904766     0.08000
C2505       C  0.50242931  0.38999221  0.01829126    -0.11100
C2506       C  0.49537799  0.37847276  0.00033168     0.06100
C2507       C  0.48919953  0.38994064  0.98199478    -0.09800
C2508       C  0.49036593  0.41227816  0.98155883    -0.11500
C2509       C  0.49807272  0.42362237  0.99930721    -0.01300
C2510       C  0.50396167  0.41225834  0.01770433    -0.10400
C2511       C  0.49513587  0.35463245  0.00056948     0.06100
H2512       H  0.48396622  0.38167533  0.96775363     0.08000
H2513       H  0.48571667  0.42063985  0.96714816     0.11500
H2514       H  0.50960143  0.42061084  0.03175857     0.11700
H2515       H  0.50675953  0.38182426  0.03289527     0.08000
C2516       C  0.51090638  0.34320985  0.01181165    -0.11100
C2517       C  0.51104673  0.32088372  0.01181265    -0.10400
C2518       C  0.49557353  0.30932857  0.00036059    -0.01300
C2519       C  0.47974940  0.32068085  0.98914353    -0.11500
C2520       C  0.47947550  0.34305009  0.98932254    -0.09900
H2521       H  0.52350290  0.35149071  0.02029383     0.08000
H2522       H  0.52353261  0.31269879  0.02055606     0.11700
H2523       H  0.46749252  0.31229891  0.98025452     0.11500
H2524       H  0.46686580  0.35123452  0.98077659     0.08000
loop_ 
_geom_bond_atom_site_label_1 
_geom_bond_atom_site_label_2 
_geom_bond_distance 
_geom_bond_site_symmetry_2 
_ccdc_geom_bond_type 
Zn1           O5   1.951       .  S
Zn1           O6   2.004       .  S
Zn1          O10   2.012       .  S
Zn1          O17   2.000       .  S
Zn2           O5   1.963   1_554  S
Zn2           O7   2.023       .  S
Zn2           O9   2.026       .  S
Zn2          O13   2.018       .  S
Zn3           O5   1.959   1_554  S
Zn3           O8   2.019       .  S
Zn3          O11   2.012       .  S
Zn3          O14   2.027       .  S
Zn4           O5   1.959       .  S
Zn4          O12   2.009       .  S
Zn4          O15   2.011       .  S
Zn4          O16   2.019       .  S
O6           C18   1.272       .  A
O7           C19   1.275       .  A
O8           C20   1.274   1_554  A
O9           C18   1.273   1_554  A
O10          C20   1.272       .  A
O11          C19   1.274       .  A
O12          C21   1.273       .  A
O13          C22   1.275   1_554  A
O14          C21   1.275   1_554  A
O15          C22   1.273       .  A
O16          C23   1.274       .  A
O17          C23   1.272       .  A
C18        C2498   1.479       .  S
C19        C2469   1.478       .  S
C20        C2509   1.478       .  S
C21        C2429   1.482       .  S
C22        C2409   1.478       .  S
C23        C2449   1.479       .  S
Zn24         O28   1.967       .  S
Zn24         O29   2.026       .  S
Zn24         O33   2.032       .  S
Zn24         O40   2.021       .  S
Zn25         O28   1.964   1_545  S
Zn25         O30   2.024       .  S
Zn25         O32   2.015       .  S
Zn25         O36   2.030       .  S
Zn26         O28   1.959   1_545  S
Zn26         O31   2.020       .  S
Zn26         O34   2.006       .  S
Zn26         O37   2.017       .  S
Zn27         O28   1.962       .  S
Zn27         O35   2.024       .  S
Zn27         O38   2.024       .  S
Zn27         O39   2.014       .  S
O29          C41   1.275       .  A
O30          C42   1.275       .  A
O31          C43   1.274   1_545  A
O32          C41   1.274   1_545  A
O33          C43   1.275       .  A
O34          C42   1.273       .  A
O35          C44   1.275       .  A
O36          C45   1.275   1_545  A
O37          C44   1.274   1_545  A
O38          C45   1.274       .  A
O39          C46   1.274       .  A
O40          C46   1.275       .  A
C41        C2398   1.484       .  S
C42        C2349   1.480       .  S
C43        C2378   1.484       .  S
C44        C2338   1.481       .  S
C45        C2318   1.486       .  S
C46        C2289   1.481       .  S
Zn47         O51   1.956       .  S
Zn47         O52   2.008       .  S
Zn47         O56   2.005       .  S
Zn47         O63   2.013       .  S
Zn48         O51   1.962   1_455  S
Zn48         O53   2.020       .  S
Zn48         O55   2.032       .  S
Zn48         O59   2.019       .  S
Zn49         O51   1.965   1_455  S
Zn49         O54   2.019       .  S
Zn49         O57   2.032       .  S
Zn49         O60   2.028       .  S
Zn50         O51   1.965       .  S
Zn50         O58   2.028       .  S
Zn50         O61   2.018       .  S
Zn50         O62   2.021       .  S
O52          C64   1.272       .  A
O53          C65   1.275       .  A
O54          C66   1.274   1_455  A
O55          C64   1.274   1_455  A
O56          C66   1.272       .  A
O57          C65   1.276       .  A
O58          C67   1.275       .  A
O59          C68   1.275   1_455  A
O60          C67   1.275   1_455  A
O61          C68   1.275       .  A
O62          C69   1.274       .  A
O63          C69   1.273       .  A
C64        C2269   1.484       .  S
C65        C2229   1.485       .  S
C66        C2169   1.474       .  S
C67        C2218   1.484       .  S
C68        C2249   1.481       .  S
C69        C2198   1.480       .  S
Zn70         O74   1.962   1_545  S
Zn70         O75   2.022       .  S
Zn70         O79   2.029       .  S
Zn70         O86   2.019       .  S
Zn71         O74   1.953   1_556  S
Zn71         O76   2.006       .  S
Zn71         O78   2.011       .  S
Zn71         O82   2.002       .  S
Zn72         O74   1.953   1_655  S
Zn72         O77   1.998       .  S
Zn72         O80   2.010       .  S
Zn72         O83   2.014       .  S
Zn73         O74   1.962   1_646  S
Zn73         O81   2.030       .  S
Zn73         O84   2.034       .  S
Zn73         O85   2.023       .  S
O75          C87   1.274       .  A
O76          C88   1.272   1_556  A
O77          C89   1.272   1_655  A
O78          C87   1.273   1_566  A
O79          C89   1.275   1_545  A
O80          C88   1.273   1_655  A
O81          C90   1.275   1_546  A
O82          C91   1.273       .  A
O83          C90   1.273       .  A
O84          C91   1.276   1_645  A
O85          C92   1.275   1_655  A
O86          C92   1.275   1_554  A
C87        C2138   1.477       .  S
C88        C2069   1.473   1_554  S
C89        C2149   1.478       .  S
C90        C2058   1.483       .  S
C91        C2089   1.481       .  S
C92        C2118   1.480       .  S
C93        C2018   1.481       .  S
C93          N94   1.360       .  A
C93          N98   1.363   1_556  A
N94          C95   1.358       .  A
C95        C2438   1.481       .  S
C95          N96   1.356   1_556  A
N96          C97   1.357       .  A
C97        C2029   1.480       .  S
C97          N98   1.362       .  A
C99        C1969   1.481       .  S
C99         N100   1.360       .  A
C99         N104   1.356       .  A
N100        C101   1.362   1_554  A
C101       C1989   1.484       .  S
C101        N102   1.362       .  A
N102        C103   1.360       .  A
C103       C2489   1.484       .  S
C103        N104   1.356   1_556  A
C105       C1949   1.488       .  S
C105        N106   1.361       .  A
C105        N110   1.363       .  A
N106        C107   1.358       .  A
C107       C2278   1.481       .  S
C107        N108   1.357   1_655  A
N108        C109   1.359       .  A
C109       C1929   1.484       .  S
C109        N110   1.363   1_455  A
C111       C1909   1.480       .  S
C111        N112   1.359       .  A
C111        N116   1.359   1_455  A
N112        C113   1.358   1_455  A
C113       C2109   1.482       .  S
C113        N114   1.360   1_556  A
N114        C115   1.360       .  A
C115       C1898   1.483       .  S
C115        N116   1.359   1_554  A
C117       C1869   1.484       .  S
C117        N118   1.360   1_455  A
C117        N122   1.358       .  A
N118        C119   1.361       .  A
C119       C1858   1.480       .  S
C119        N120   1.361       .  A
N120        C121   1.359       .  A
C121       C2209   1.483       .  S
C121        N122   1.358   1_655  A
Zn123       O127   1.964       .  S
Zn123       O128   2.016       .  S
Zn123       O132   2.023       .  S
Zn123       O139   2.042       .  S
Zn124       O127   1.970       .  S
Zn124       O129   2.033       .  S
Zn124       O131   2.029       .  S
Zn124       O135   2.053       .  S
Zn125       O127   1.967       .  S
Zn125       O130   2.019       .  S
Zn125       O133   2.017       .  S
Zn125       O136   2.046       .  S
Zn126       O127   1.916       .  S
Zn126       O134   1.973       .  S
Zn126       O137   1.974       .  S
Zn126       O138   1.977       .  S
O128        C140   1.275       .  A
O129        C141   1.278       .  A
O130        C142   1.275       .  A
O131        C140   1.277       .  A
O132        C142   1.276       .  A
O133        C141   1.275       .  A
O134        C143   1.269       .  A
O135        C144   1.275       .  A
O136        C143   1.274       .  A
O137        C144   1.269       .  A
O138        C145   1.269       .  A
O139        C145   1.274       .  A
C140       C1878   1.482       .  S
C141       C1998   1.483       .  S
C142       C1918   1.480       .  S
C143       C1809   1.475       .  S
C144       C1829   1.474       .  S
C145       C1798   1.476       .  S
C146       C1769   1.484       .  S
C146        N147   1.357       .  A
C146        N151   1.363   1_656  A
N147        C148   1.354   1_656  A
C148       C2078   1.478       .  S
C148        N149   1.355       .  A
N149        C150   1.358       .  A
C150       C1749   1.485       .  S
C150        N151   1.363       .  A
Zn152       O156   1.923       .  S
Zn152       O157   1.987       .  S
Zn152       O161   1.993       .  S
Zn152       O168   1.986       .  S
Zn153       O156   1.965       .  S
Zn153       O158   2.032       .  S
Zn153       O160   2.039       .  S
Zn153       O164   2.023       .  S
Zn154       O156   1.959       .  S
Zn154       O159   2.043       .  S
Zn154       O162   2.016       .  S
Zn154       O165   2.016       .  S
Zn155       O156   1.965       .  S
Zn155       O163   2.017       .  S
Zn155       O166   2.016       .  S
Zn155       O167   2.042       .  S
O157        C169   1.270       .  A
O158        C170   1.276       .  A
O159        C171   1.274       .  A
O160        C169   1.275       .  A
O161        C171   1.271       .  A
O162        C170   1.275       .  A
O163        C172   1.275       .  A
O164        C173   1.275       .  A
O165        C172   1.275       .  A
O166        C173   1.275       .  A
O167        C174   1.274       .  A
O168        C174   1.271       .  A
C169       C1709   1.473       .  S
C170       C2009   1.485       .  S
C171       C1729   1.477       .  S
C172       C1849   1.480       .  S
C173       C1778   1.479       .  S
C174       C1689   1.472       .  S
Zn175       O179   1.934       .  S
Zn175       O180   1.974       .  S
Zn175       O184   1.987       .  S
Zn175       O191   1.982       .  S
Zn176       O179   1.975       .  S
Zn176       O181   2.042       .  S
Zn176       O183   2.059       .  S
Zn176       O187   2.025       .  S
Zn177       O179   1.969       .  S
Zn177       O182   2.043       .  S
Zn177       O185   2.015       .  S
Zn177       O188   2.022       .  S
Zn178       O179   1.976       .  S
Zn178       O186   2.028       .  S
Zn178       O189   2.043       .  S
Zn178       O190   2.056       .  S
O180        C192   1.268       .  A
O181        C193   1.278       .  A
O182        C194   1.274       .  A
O183        C192   1.275       .  A
O184        C194   1.268       .  A
O185        C193   1.275       .  A
O186        C195   1.276       .  A
O187        C196   1.276       .  A
O188        C195   1.275       .  A
O189        C196   1.277       .  A
O190        C197   1.277       .  A
O191        C197   1.271       .  A
C192       C1629   1.473       .  S
C193       C1889   1.485       .  S
C194       C1649   1.471       .  S
C195       C2038   1.485       .  S
C196       C1958   1.486       .  S
C197       C1669   1.485       .  S
Zn198       O202   1.932       .  S
Zn198       O203   1.996       .  S
Zn198       O207   1.989       .  S
Zn198       O214   1.989       .  S
Zn199       O202   1.959       .  S
Zn199       O204   2.019       .  S
Zn199       O206   2.022       .  S
Zn199       O210   2.010       .  S
Zn200       O202   1.967       .  S
Zn200       O205   2.046       .  S
Zn200       O208   2.022       .  S
Zn200       O211   2.037       .  S
Zn201       O202   1.963       .  S
Zn201       O209   2.018       .  S
Zn201       O212   2.031       .  S
Zn201       O213   2.046       .  S
O203        C215   1.271       .  A
O204        C216   1.275       .  A
O205        C217   1.275       .  A
O206        C215   1.273       .  A
O207        C217   1.270       .  A
O208        C216   1.276       .  A
O209        C218   1.276       .  A
O210        C219   1.273       .  A
O211        C218   1.277       .  A
O212        C219   1.276       .  A
O213        C220   1.275       .  A
O214        C220   1.271       .  A
C215       C1589   1.471       .  S
C216       C1978   1.480       .  S
C217       C1609   1.470       .  S
C218       C1938   1.486       .  S
C219       C1758   1.478       .  S
C220       C1569   1.476       .  S
C221       C1529   1.482       .  S
C221        N222   1.359   1_554  A
C221        N226   1.359       .  A
N222        C223   1.358       .  A
C223       C1549   1.481       .  S
C223        N224   1.359       .  A
N224        C225   1.359       .  A
C225       C2518   1.484   1_556  S
C225        N226   1.360   1_556  A
C227       C1489   1.480       .  S
C227        N228   1.360       .  A
C227        N232   1.360       .  A
N228        C229   1.359   1_556  A
C229       C1509   1.481       .  S
C229        N230   1.358       .  A
N230        C231   1.356   1_554  A
C231       C2418   1.481       .  S
C231        N232   1.357       .  A
C233       C1469   1.477       .  S
C233        N234   1.357       .  A
C233        N238   1.358   1_565  A
N234        C235   1.355   1_565  A
C235       C2389   1.479       .  S
C235        N236   1.359       .  A
N236        C237   1.361       .  A
C237       C1449   1.481       .  S
C237        N238   1.361       .  A
C239       C1429   1.480       .  S
C239        N240   1.358       .  A
C239        N244   1.361   1_556  A
N240        C241   1.356   1_556  A
C241       C2129   1.481       .  S
C241        N242   1.356   1_545  A
N242        C243   1.359       .  A
C243       C1409   1.480       .  S
C243        N244   1.361   1_565  A
C245       C1398   1.485       .  S
C245        N246   1.360   1_566  A
C245        N250   1.359       .  A
N246        C247   1.360       .  A
C247       C1378   1.482       .  S
C247        N248   1.360       .  A
N248        C249   1.358       .  A
C249       C2049   1.483       .  S
C249        N250   1.358   1_544  A
Zn251       O255   1.976       .  S
Zn251       O256   2.035       .  S
Zn251       O260   2.043       .  S
Zn251       O267   2.042       .  S
Zn252       O255   1.958       .  S
Zn252       O257   2.029       .  S
Zn252       O259   1.995       .  S
Zn252       O263   2.014       .  S
Zn253       O255   1.945       .  S
Zn253       O258   1.995       .  S
Zn253       O261   2.014       .  S
Zn253       O264   2.001       .  S
Zn254       O255   1.954       .  S
Zn254       O262   2.013       .  S
Zn254       O265   2.008       .  S
Zn254       O266   2.003       .  S
O256        C268   1.276       .  A
O257        C269   1.274       .  A
O258        C270   1.273       .  A
O259        C268   1.273       .  A
O260        C270   1.276       .  A
O261        C269   1.272       .  A
O262        C271   1.273       .  A
O263        C272   1.273       .  A
O264        C271   1.272       .  A
O265        C272   1.273       .  A
O266        C273   1.273       .  A
O267        C273   1.277       .  A
C268       C1498   1.475       .  S
C269       C1329   1.484       .  S
C270       C1349   1.481       .  S
C271       C1309   1.479       .  S
C272       C1718   1.480       .  S
C273       C1389   1.482       .  S
C274       C1289   1.479       .  S
C274        N275   1.359       .  A
C274        N279   1.360       .  A
N275        C276   1.357   1_545  A
C276       C2329   1.483       .  S
C276        N277   1.357       .  A
N277        C278   1.360       .  A
C278       C1358   1.483       .  S
C278        N279   1.360   1_565  A
Zn280       O284   1.969       .  S
Zn280       O285   2.030       .  S
Zn280       O289   2.051       .  S
Zn280       O296   2.023       .  S
Zn281       O284   1.964       .  S
Zn281       O286   2.045       .  S
Zn281       O288   2.013       .  S
Zn281       O292   2.014       .  S
Zn282       O284   1.918       .  S
Zn282       O287   1.972       .  S
Zn282       O290   1.983       .  S
Zn282       O293   1.981       .  S
Zn283       O284   1.969       .  S
Zn283       O291   2.047       .  S
Zn283       O294   2.018       .  S
Zn283       O295   2.025       .  S
O285        C297   1.277       .  A
O286        C298   1.274       .  A
O287        C299   1.269       .  A
O288        C297   1.275       .  A
O289        C299   1.276       .  A
O290        C298   1.269       .  A
O291        C300   1.275       .  A
O292        C301   1.275       .  A
O293        C300   1.270       .  A
O294        C301   1.275       .  A
O295        C302   1.276       .  A
O296        C302   1.276       .  A
C297       C1438   1.480       .  S
C298       C1249   1.474       .  S
C299       C1818   1.481       .  S
C300       C1278   1.479       .  S
C301       C1298   1.478       .  S
C302       C1558   1.481       .  S
Zn303       O307   1.973       .  S
Zn303       O308   2.036       .  S
Zn303       O312   2.025       .  S
Zn303       O319   2.031       .  S
Zn304       O307   1.949       .  S
Zn304       O309   2.015       .  S
Zn304       O311   1.997       .  S
Zn304       O315   2.002       .  S
Zn305       O307   1.958       .  S
Zn305       O310   2.002       .  S
Zn305       O313   2.029       .  S
Zn305       O316   2.028       .  S
Zn306       O307   1.954       .  S
Zn306       O314   2.011       .  S
Zn306       O317   2.006       .  S
Zn306       O318   2.004       .  S
O308        C320   1.275       .  A
O309        C321   1.273       .  A
O310        C322   1.274       .  A
O311        C320   1.273       .  A
O312        C322   1.275       .  A
O313        C321   1.274       .  A
O314        C323   1.273       .  A
O315        C324   1.271       .  A
O316        C323   1.275       .  A
O317        C324   1.272       .  A
O318        C325   1.274       .  A
O319        C325   1.275       .  A
C320       C1518   1.479       .  S
C321       C1238   1.485       .  S
C322       C1478   1.478       .  S
C323       C1218   1.481       .  S
C324       C1598   1.478       .  S
C325       C1418   1.482       .  S
Zn326       O330   1.927       .  S
Zn326       O331   1.990       .  S
Zn326       O335   1.991       .  S
Zn326       O342   1.978       .  S
Zn327       O330   1.957       .  S
Zn327       O332   2.009       .  S
Zn327       O334   2.031       .  S
Zn327       O338   2.009       .  S
Zn328       O330   1.965       .  S
Zn328       O333   2.040       .  S
Zn328       O336   2.019       .  S
Zn328       O339   2.025       .  S
Zn329       O330   1.970       .  S
Zn329       O337   2.016       .  S
Zn329       O340   2.033       .  S
Zn329       O341   2.055       .  S
O331        C343   1.269       .  A
O332        C344   1.273       .  A
O333        C345   1.275       .  A
O334        C343   1.272       .  A
O335        C345   1.271       .  A
O336        C344   1.275       .  A
O337        C346   1.275       .  A
O338        C347   1.274       .  A
O339        C346   1.276       .  A
O340        C347   1.277       .  A
O341        C348   1.276       .  A
O342        C348   1.270       .  A
C343       C1658   1.468       .  S
C344       C1369   1.478       .  S
C345       C1169   1.475       .  S
C346       C1458   1.479       .  S
C347       C1538   1.478       .  S
C348       C1189   1.484       .  S
C349       C1129   1.480       .  S
C349        N350   1.359       .  A
C349        N354   1.359       .  A
N350        C351   1.359       .  A
C351       C2478   1.485       .  S
C351        N352   1.360       .  A
N352        C353   1.359       .  A
C353       C1149   1.479       .  S
C353        N354   1.358       .  A
C355       C1109   1.481       .  S
C355        N356   1.359       .  A
C355        N360   1.360       .  A
N356        C357   1.357       .  A
C357       C2189   1.481       .  S
C357        N358   1.358       .  A
N358        C359   1.360       .  A
C359       C1089   1.483       .  S
C359        N360   1.360       .  A
Zn361       O365   1.971       .  S
Zn361       O366   2.057       .  S
Zn361       O370   2.019       .  S
Zn361       O377   2.025       .  S
Zn362       O365   1.925       .  S
Zn362       O367   1.971       .  S
Zn362       O369   1.980       .  S
Zn362       O373   1.988       .  S
Zn363       O365   1.976       .  S
Zn363       O368   2.031       .  S
Zn363       O371   2.053       .  S
Zn363       O374   2.024       .  S
Zn364       O365   1.968       .  S
Zn364       O372   2.029       .  S
Zn364       O375   2.046       .  S
Zn364       O376   2.022       .  S
O366        C378   1.275       .  A
O367        C379   1.267       .  A
O368        C380   1.277       .  A
O369        C378   1.269       .  A
O370        C380   1.276       .  A
O371        C379   1.274       .  A
O372        C381   1.276       .  A
O373        C382   1.271       .  A
O374        C381   1.276       .  A
O375        C382   1.275       .  A
O376        C383   1.275       .  A
O377        C383   1.276       .  A
C378       C1049   1.481       .  S
C379       C1198   1.471       .  S
C380       C1069   1.480       .  S
C381       C1158   1.484       .  S
C382       C1678   1.476       .  S
C383       C1118   1.480       .  S
C384       C1029   1.482       .  S
C384        N385   1.361       .  A
C384        N389   1.359       .  A
N385        C386   1.361       .  A
C386       C1078   1.485       .  S
C386        N387   1.358       .  A
N387        C388   1.357       .  A
C388       C2358   1.482       .  S
C388        N389   1.359       .  A
C390       C1009   1.478       .  S
C390        N391   1.360       .  A
C390        N395   1.359       .  A
N391        C392   1.361       .  A
C392        C989   1.481       .  S
C392        N393   1.359       .  A
N393        C394   1.357       .  A
C394       C2298   1.480       .  S
C394        N395   1.357       .  A
Zn396       O400   1.964       .  S
Zn396       O401   2.048       .  S
Zn396       O405   2.015       .  S
Zn396       O412   2.023       .  S
Zn397       O400   1.916       .  S
Zn397       O402   1.975       .  S
Zn397       O404   1.979       .  S
Zn397       O408   1.977       .  S
Zn398       O400   1.966       .  S
Zn398       O403   2.034       .  S
Zn398       O406   2.052       .  S
Zn398       O409   2.027       .  S
Zn399       O400   1.966       .  S
Zn399       O407   2.024       .  S
Zn399       O410   2.062       .  S
Zn399       O411   2.016       .  S
O401        C413   1.275       .  A
O402        C414   1.269       .  A
O403        C415   1.276       .  A
O404        C413   1.269       .  A
O405        C415   1.275       .  A
O406        C414   1.276       .  A
O407        C416   1.277       .  A
O408        C417   1.269       .  A
O409        C416   1.277       .  A
O410        C417   1.276       .  A
O411        C418   1.275       .  A
O412        C418   1.276       .  A
C413       C1618   1.481       .  S
C414        C949   1.473       .  S
C415        C969   1.483       .  S
C416       C1018   1.483       .  S
C417       C1229   1.481       .  S
C418       C1138   1.480       .  S
C419        C929   1.480       .  S
C419        N420   1.359       .  A
C419        N424   1.359       .  A
N420        C421   1.360       .  A
C421        C978   1.482       .  S
C421        N422   1.361       .  A
N422        C423   1.360       .  A
C423       C2238   1.482       .  S
C423        N424   1.359       .  A
C425        C889   1.483       .  S
C425        N426   1.363       .  A
C425        N430   1.357       .  A
N426        C427   1.364       .  A
C427        C909   1.482       .  S
C427        N428   1.359       .  A
N428        C429   1.356       .  A
C429       C2458   1.477       .  S
C429        N430   1.353       .  A
Zn431       O435   1.963       .  S
Zn431       O436   2.025       .  S
Zn431       O440   2.036       .  S
Zn431       O447   2.024       .  S
Zn432       O435   1.970       .  S
Zn432       O437   2.047       .  S
Zn432       O439   2.029       .  S
Zn432       O443   2.026       .  S
Zn433       O435   1.924       .  S
Zn433       O438   1.978       .  S
Zn433       O441   1.984       .  S
Zn433       O444   1.981       .  S
Zn434       O435   1.969       .  S
Zn434       O442   2.048       .  S
Zn434       O445   2.018       .  S
Zn434       O446   2.029       .  S
O436        C448   1.276       .  A
O437        C449   1.275       .  A
O438        C450   1.269       .  A
O439        C448   1.276       .  A
O440        C450   1.274       .  A
O441        C449   1.270       .  A
O442        C451   1.274       .  A
O443        C452   1.277       .  A
O444        C451   1.270       .  A
O445        C452   1.276       .  A
O446        C453   1.276       .  A
O447        C453   1.276       .  A
C448        C938   1.485       .  S
C449       C1838   1.482       .  S
C450        C878   1.471       .  S
C451       C1269   1.480       .  S
C452        C918   1.481       .  S
C453       C1038   1.484       .  S
Zn454       O458   1.962       .  S
Zn454       O459   2.026       .  S
Zn454       O463   2.027       .  S
Zn454       O470   2.006       .  S
Zn455       O458   1.948       .  S
Zn455       O460   2.010       .  S
Zn455       O462   2.006       .  S
Zn455       O466   2.004       .  S
Zn456       O458   1.955       .  S
Zn456       O461   2.000       .  S
Zn456       O464   2.025       .  S
Zn456       O467   1.999       .  S
Zn457       O458   1.973       .  S
Zn457       O465   2.030       .  S
Zn457       O468   2.037       .  S
Zn457       O469   2.036       .  S
O459        C471   1.274       .  A
O460        C472   1.272       .  A
O461        C473   1.272       .  A
O462        C471   1.273       .  A
O463        C473   1.274       .  A
O464        C472   1.273       .  A
O465        C474   1.276       .  A
O466        C475   1.274       .  A
O467        C474   1.273       .  A
O468        C475   1.276       .  A
O469        C476   1.276       .  A
O470        C476   1.274       .  A
C471       C1738   1.483       .  S
C472       C1338   1.482       .  S
C473        C849   1.481       .  S
C474        C998   1.479       .  S
C475        C898   1.481       .  S
C476       C1098   1.479       .  S
C477        C838   1.481       .  S
C477        N478   1.360       .  A
C477        N482   1.360       .  A
N478        C479   1.361   1_565  A
C479        C818   1.479       .  S
C479        N480   1.360       .  A
N480        C481   1.357   1_545  A
C481       C2369   1.486       .  S
C481        N482   1.358       .  A
C483        C778   1.479       .  S
C483        N484   1.359       .  A
C483        N488   1.360       .  A
N484        C485   1.357       .  A
C485       C2309   1.484       .  S
C485        N486   1.359   1_565  A
N486        C487   1.361       .  A
C487        C798   1.484       .  S
C487        N488   1.360   1_545  A
C489        C738   1.481       .  S
C489        N490   1.360       .  A
C489        N494   1.359       .  A
N490        C491   1.361   1_455  A
C491        C749   1.480       .  S
C491        N492   1.359       .  A
N492        C493   1.356       .  A
C493       C2258   1.479       .  S
C493        N494   1.356   1_655  A
C495        C709   1.483       .  S
C495        N496   1.359       .  A
C495        N500   1.360   1_455  A
N496        C497   1.357   1_455  A
C497       C2158   1.483       .  S
C497        N498   1.359   1_565  A
N498        C499   1.360       .  A
C499        C689   1.484       .  S
C499        N500   1.361   1_545  A
C501        C669   1.478       .  S
C501        N502   1.359   1_655  A
C501        N506   1.358       .  A
N502        C503   1.359       .  A
C503        C658   1.476       .  S
C503        N504   1.359       .  A
N504        C505   1.358   1_455  A
C505       C2178   1.480       .  S
C505        N506   1.357       .  A
Zn507       O511   1.980       .  S
Zn507       O512   2.055       .  S
Zn507       O516   2.040       .  S
Zn507       O523   2.047       .  S
Zn508       O511   1.947       .  S
Zn508       O513   2.019       .  S
Zn508       O515   1.993       .  S
Zn508       O519   2.008       .  S
Zn509       O511   1.952       .  S
Zn509       O514   2.005       .  S
Zn509       O517   2.015       .  S
Zn509       O520   2.013       .  S
Zn510       O511   1.956       .  S
Zn510       O518   2.014       .  S
Zn510       O521   2.025       .  S
Zn510       O522   1.993       .  S
O512        C524   1.278       .  A
O513        C525   1.273       .  A
O514        C526   1.274       .  A
O515        C524   1.273       .  A
O516        C526   1.276       .  A
O517        C525   1.273       .  A
O518        C527   1.273       .  A
O519        C528   1.272       .  A
O520        C527   1.273       .  A
O521        C528   1.274       .  A
O522        C529   1.273       .  A
O523        C529   1.278       .  A
C524        C718   1.483       .  S
C525       C1209   1.483       .  S
C526        C829   1.484       .  S
C527        C958   1.482       .  S
C528       C1578   1.484       .  S
C529        C649   1.483       .  S
Zn530       O534   1.963       .  S
Zn530       O535   1.999       .  S
Zn530       O539   2.026       .  S
Zn530       O546   2.037       .  S
Zn531       O534   1.979       .  S
Zn531       O536   2.039       .  S
Zn531       O538   2.035       .  S
Zn531       O542   2.049       .  S
Zn532       O534   1.955       .  S
Zn532       O537   2.020       .  S
Zn532       O540   2.002       .  S
Zn532       O543   2.025       .  S
Zn533       O534   1.946       .  S
Zn533       O541   2.005       .  S
Zn533       O544   1.992       .  S
Zn533       O545   2.002       .  S
O535        C547   1.274       .  A
O536        C548   1.276       .  A
O537        C549   1.274       .  A
O538        C547   1.277       .  A
O539        C549   1.274       .  A
O540        C548   1.274       .  A
O541        C550   1.272       .  A
O542        C551   1.277       .  A
O543        C550   1.274       .  A
O544        C551   1.271       .  A
O545        C552   1.272       .  A
O546        C552   1.275       .  A
C547        C758   1.479       .  S
C548        C789   1.481       .  S
C549       C1058   1.486       .  S
C550       C1178   1.482       .  S
C551        C698   1.481       .  S
C552       C1638   1.485       .  S
C553        C618   1.484       .  S
C553        N554   1.359   1_545  A
C553        N558   1.359       .  A
N554        C555   1.359   1_455  A
C555        C629   1.481       .  S
C555        N556   1.359       .  A
N556        C557   1.358   1_655  A
C557       C2098   1.482       .  S
C557        N558   1.359   1_565  A
Zn559       O563   1.960       .  S
Zn559       O564   2.043       .  S
Zn559       O568   2.014       .  S
Zn559       O575   2.018       .  S
Zn560       O563   1.918       .  S
Zn560       O565   1.985       .  S
Zn560       O567   1.972       .  S
Zn560       O571   1.977       .  S
Zn561       O563   1.957       .  S
Zn561       O566   2.024       .  S
Zn561       O569   2.033       .  S
Zn561       O572   2.011       .  S
Zn562       O563   1.962       .  S
Zn562       O570   2.015       .  S
Zn562       O573   2.040       .  S
Zn562       O574   2.008       .  S
O564        C576   1.275       .  A
O565        C577   1.270       .  A
O566        C578   1.275       .  A
O567        C576   1.269       .  A
O568        C578   1.275       .  A
O569        C577   1.274       .  A
O570        C579   1.275       .  A
O571        C580   1.268       .  A
O572        C579   1.275       .  A
O573        C580   1.273       .  A
O574        C581   1.274       .  A
O575        C581   1.276       .  A
C576       C1698   1.481       .  S
C577       C1318   1.471       .  S
C578        C638   1.480       .  S
C579        C769   1.476       .  S
C580        C858   1.471       .  S
C581        C678   1.477       .  S
Zn582       O586   1.972       .  S
Zn582       O587   2.037       .  S
Zn582       O591   2.036       .  S
Zn582       O598   2.030       .  S
Zn583       O586   1.951       .  S
Zn583       O588   2.009       .  S
Zn583       O590   1.996       .  S
Zn583       O594   2.011       .  S
Zn584       O586   1.955       .  S
Zn584       O589   2.001       .  S
Zn584       O592   2.018       .  S
Zn584       O595   2.017       .  S
Zn585       O586   1.951       .  S
Zn585       O593   2.015       .  S
Zn585       O596   2.008       .  S
Zn585       O597   1.995       .  S
O587        C599   1.276       .  A
O588        C600   1.273       .  A
O589        C601   1.273       .  A
O590        C599   1.273       .  A
O591        C601   1.276       .  A
O592        C600   1.273       .  A
O593        C602   1.273       .  A
O594        C603   1.272       .  A
O595        C602   1.274       .  A
O596        C603   1.272       .  A
O597        C604   1.272       .  A
O598        C604   1.275       .  A
C599        C729   1.481       .  S
C600       C1789   1.481       .  S
C601        C609   1.479       .  S
C602       C1258   1.483       .  S
C603        C869   1.480       .  S
C604        C809   1.479       .  S
C605        C606   1.407       .  A
C605        C610   1.401       .  A
C605        H615   1.083       .  S
C606        C611   1.487       .  S
C606        C607   1.405       .  A
C607        C608   1.395       .  A
C607        H612   1.083       .  S
C608        C609   1.404       .  A
C608        H613   1.083       .  S
C609        C610   1.405       .  A
C610        H614   1.083       .  S
C611        C616   1.405       .  A
C611        C620   1.406       .  A
C616        C617   1.399       .  A
C616        H621   1.083       .  S
C617        C618   1.407       .  A
C617        H622   1.083       .  S
C618        C619   1.406       .  A
C619        C620   1.397       .  A
C619        H623   1.083       .  S
C620        H624   1.083       .  S
C625        C626   1.404       .  A
C625        C630   1.395       .  A
C625        H635   1.083       .  S
C626        C631   1.480       .  S
C626        C627   1.404       .  A
C627        C628   1.400       .  A
C627        H632   1.083       .  S
C628        C629   1.407       .  A
C628        H633   1.083       .  S
C629        C630   1.405       .  A
C630        H634   1.083       .  S
C631        C636   1.404       .  A
C631        C640   1.405       .  A
C636        C637   1.396       .  A
C636        H641   1.083       .  S
C637        C638   1.405       .  A
C637        H642   1.083       .  S
C638        C639   1.406       .  A
C639        C640   1.400       .  A
C639        H643   1.083       .  S
C640        H644   1.083       .  S
C645        C646   1.408       .  A
C645        C650   1.401       .  A
C645        H655   1.083       .  S
C646        C651   1.488       .  S
C646        C647   1.405       .  A
C647        C648   1.394       .  A
C647        H652   1.083       .  S
C648        C649   1.407       .  A
C648        H653   1.083       .  S
C649        C650   1.405       .  A
C650        H654   1.083       .  S
C651        C656   1.407       .  A
C651        C660   1.407       .  A
C656        C657   1.400       .  A
C656        H661   1.083       .  S
C657        C658   1.405       .  A
C657        H662   1.083       .  S
C658        C659   1.403       .  A
C659        C660   1.395       .  A
C659        H663   1.083       .  S
C660        H664   1.083       .  S
C665        C666   1.403       .  A
C665        C670   1.398       .  A
C665        H675   1.083       .  S
C666        C671   1.475       .  S
C666        C667   1.402       .  A
C667        C668   1.395       .  A
C667        H672   1.083       .  S
C668        C669   1.406       .  A
C668        H673   1.083       .  S
C669        C670   1.406       .  A
C670        H674   1.083       .  S
C671        C676   1.403       .  A
C671        C680   1.403       .  A
C676        C677   1.397       .  A
C676        H681   1.083       .  S
C677        C678   1.405       .  A
C677        H682   1.083       .  S
C678        C679   1.406       .  A
C679        C680   1.396       .  A
C679        H683   1.083       .  S
C680        H684   1.083       .  S
C685        C686   1.406       .  A
C685        C690   1.400       .  A
C685        H695   1.083       .  S
C686        C691   1.488       .  S
C686        C687   1.407       .  A
C687        C688   1.397       .  A
C687        H692   1.083       .  S
C688        C689   1.406       .  A
C688        H693   1.083       .  S
C689        C690   1.407       .  A
C690        H694   1.083       .  S
C691        C696   1.408       .  A
C691        C700   1.405       .  A
C696        C697   1.403       .  A
C696        H701   1.083       .  S
C697        C698   1.405       .  A
C697        H702   1.083       .  S
C698        C699   1.405       .  A
C699        C700   1.394       .  A
C699        H703   1.083       .  S
C700        H704   1.083       .  S
C705        C706   1.407       .  A
C705        C710   1.402       .  A
C705        H715   1.083       .  S
C706        C711   1.490       .  S
C706        C707   1.407       .  A
C707        C708   1.395       .  A
C707        H712   1.083       .  S
C708        C709   1.404       .  A
C708        H713   1.083       .  S
C709        C710   1.407       .  A
C710        H714   1.083       .  S
C711        C716   1.409       .  A
C711        C720   1.405       .  A
C716        C717   1.405       .  A
C716        H721   1.083       .  S
C717        C718   1.406       .  A
C717        H722   1.083       .  S
C718        C719   1.405       .  A
C719        C720   1.392       .  A
C719        H723   1.083       .  S
C720        H724   1.083       .  S
C725        C726   1.405       .  A
C725        C730   1.393       .  A
C725        H735   1.083       .  S
C726        C731   1.487       .  S
C726        C727   1.407       .  A
C727        C728   1.401       .  A
C727        H732   1.083       .  S
C728        C729   1.406       .  A
C728        H733   1.083       .  S
C729        C730   1.405       .  A
C730        H734   1.083       .  S
C731        C736   1.406       .  A
C731        C740   1.407       .  A
C736        C737   1.393       .  A
C736        H741   1.083       .  S
C737        C738   1.404       .  A
C737        H742   1.083       .  S
C738        C739   1.406       .  A
C739        C740   1.401       .  A
C739        H743   1.083       .  S
C740        H744   1.083       .  S
C745        C746   1.405       .  A
C745        C750   1.394       .  A
C745        H755   1.083       .  S
C746        C751   1.484       .  S
C746        C747   1.406       .  A
C747        C748   1.401       .  A
C747        H752   1.083       .  S
C748        C749   1.406       .  A
C748        H753   1.083       .  S
C749        C750   1.404       .  A
C750        H754   1.083       .  S
C751        C756   1.405       .  A
C751        C760   1.407       .  A
C756        C757   1.393       .  A
C756        H761   1.083       .  S
C757        C758   1.405       .  A
C757        H762   1.083       .  S
C758        C759   1.406       .  A
C759        C760   1.401       .  A
C759        H763   1.083       .  S
C760        H764   1.083       .  S
C765        C766   1.403       .  A
C765        C770   1.396       .  A
C765        H775   1.083       .  S
C766        C771   1.476       .  S
C766        C767   1.404       .  A
C767        C768   1.398       .  A
C767        H772   1.083       .  S
C768        C769   1.405       .  A
C768        H773   1.083       .  S
C769        C770   1.405       .  A
C770        H774   1.083       .  S
C771        C776   1.402       .  A
C771        C780   1.404       .  A
C776        C777   1.395       .  A
C776        H781   1.083       .  S
C777        C778   1.406       .  A
C777        H782   1.083       .  S
C778        C779   1.406       .  A
C779        C780   1.399       .  A
C779        H783   1.083       .  S
C780        H784   1.083       .  S
C785        C786   1.409       .  A
C785        C790   1.403       .  A
C785        H795   1.083       .  S
C786        C791   1.490       .  S
C786        C787   1.405       .  A
C787        C788   1.393       .  A
C787        H792   1.083       .  S
C788        C789   1.404       .  A
C788        H793   1.083       .  S
C789        C790   1.406       .  A
C790        H794   1.083       .  S
C791        C796   1.407       .  A
C791        C800   1.407       .  A
C796        C797   1.402       .  A
C796        H801   1.083       .  S
C797        C798   1.407       .  A
C797        H802   1.083       .  S
C798        C799   1.404       .  A
C799        C800   1.395       .  A
C799        H803   1.083       .  S
C800        H804   1.083       .  S
C805        C806   1.408       .  A
C805        C810   1.401       .  A
C805        H815   1.082       .  S
C806        C811   1.487       .  S
C806        C807   1.405       .  A
C807        C808   1.393       .  A
C807        H812   1.083       .  S
C808        C809   1.404       .  A
C808        H813   1.083       .  S
C809        C810   1.405       .  A
C810        H814   1.083       .  S
C811        C816   1.406       .  A
C811        C820   1.407       .  A
C816        C817   1.394       .  A
C816        H821   1.083       .  S
C817        C818   1.404       .  A
C817        H822   1.083       .  S
C818        C819   1.406       .  A
C819        C820   1.401       .  A
C819        H823   1.083       .  S
C820        H824   1.083       .  S
C825        C826   1.405       .  A
C825        C830   1.393       .  A
C825        H835   1.083       .  S
C826        C831   1.489       .  S
C826        C827   1.408       .  A
C827        C828   1.404       .  A
C827        H832   1.083       .  S
C828        C829   1.407       .  A
C828        H833   1.083       .  S
C829        C830   1.404       .  A
C830        H834   1.083       .  S
C831        C836   1.406       .  A
C831        C840   1.407       .  A
C836        C837   1.394       .  A
C836        H841   1.083       .  S
C837        C838   1.403       .  A
C837        H842   1.083       .  S
C838        C839   1.407       .  A
C839        C840   1.403       .  A
C839        H843   1.083       .  S
C840        H844   1.083       .  S
C845        C846   1.407       .  A
C845        C850   1.399       .  A
C845        H855   1.083       .  S
C846        C851   1.483       .  S
C846        C847   1.403       .  A
C847        C848   1.395       .  A
C847        H852   1.083       .  S
C848        C849   1.406       .  A
C848        H853   1.083       .  S
C849        C850   1.406       .  A
C850        H854   1.083       .  S
C851        C856   1.404       .  A
C851        C860   1.408       .  A
C856        C857   1.393       .  A
C856        H861   1.083       .  S
C857        C858   1.403       .  A
C857        H862   1.084       .  S
C858        C859   1.402       .  A
C859        C860   1.401       .  A
C859        H863   1.083       .  S
C860        H864   1.083       .  S
C865        C866   1.404       .  A
C865        C870   1.398       .  A
C865        H875   1.083       .  S
C866        C871   1.479       .  S
C866        C867   1.404       .  A
C867        C868   1.395       .  A
C867        H872   1.083       .  S
C868        C869   1.405       .  A
C868        H873   1.083       .  S
C869        C870   1.407       .  A
C870        H874   1.083       .  S
C871        C876   1.406       .  A
C871        C880   1.403       .  A
C876        C877   1.401       .  A
C876        H881   1.083       .  S
C877        C878   1.404       .  A
C877        H882   1.083       .  S
C878        C879   1.403       .  A
C879        C880   1.392       .  A
C879        H883   1.084       .  S
C880        H884   1.083       .  S
C885        C886   1.409       .  A
C885        C890   1.404       .  A
C885        H895   1.082       .  S
C886        C891   1.490       .  S
C886        C887   1.405       .  A
C887        C888   1.392       .  A
C887        H892   1.083       .  S
C888        C889   1.405       .  A
C888        H893   1.083       .  S
C889        C890   1.406       .  A
C890        H894   1.083       .  S
C891        C896   1.408       .  A
C891        C900   1.406       .  A
C896        C897   1.402       .  A
C896        H901   1.082       .  S
C897        C898   1.406       .  A
C897        H902   1.083       .  S
C898        C899   1.404       .  A
C899        C900   1.394       .  A
C899        H903   1.083       .  S
C900        H904   1.083       .  S
C905        C906   1.402       .  A
C905        C910   1.396       .  A
C905        H915   1.083       .  S
C906        C911   1.479       .  S
C906        C907   1.405       .  A
C907        C908   1.401       .  A
C907        H912   1.083       .  S
C908        C909   1.406       .  A
C908        H913   1.083       .  S
C909        C910   1.407       .  A
C910        H914   1.083       .  S
C911        C916   1.403       .  A
C911        C920   1.404       .  A
C916        C917   1.398       .  A
C916        H921   1.083       .  S
C917        C918   1.407       .  A
C917        H922   1.083       .  S
C918        C919   1.406       .  A
C919        C920   1.399       .  A
C919        H923   1.083       .  S
C920        H924   1.083       .  S
C925        C926   1.406       .  A
C925        C930   1.400       .  A
C925        H935   1.083       .  S
C926        C931   1.486       .  S
C926        C927   1.405       .  A
C927        C928   1.399       .  A
C927        H932   1.083       .  S
C928        C929   1.405       .  A
C928        H933   1.083       .  S
C929        C930   1.405       .  A
C930        H934   1.083       .  S
C931        C936   1.405       .  A
C931        C940   1.406       .  A
C936        C937   1.399       .  A
C936        H941   1.083       .  S
C937        C938   1.406       .  A
C937        H942   1.083       .  S
C938        C939   1.407       .  A
C939        C940   1.400       .  A
C939        H943   1.083       .  S
C940        H944   1.083       .  S
C945        C946   1.404       .  A
C945        C950   1.393       .  A
C945        H955   1.083       .  S
C946        C951   1.482       .  S
C946        C947   1.407       .  A
C947        C948   1.402       .  A
C947        H952   1.083       .  S
C948        C949   1.403       .  A
C948        H953   1.083       .  S
C949        C950   1.403       .  A
C950        H954   1.084       .  S
C951        C956   1.405       .  A
C951        C960   1.404       .  A
C956        C957   1.397       .  A
C956        H961   1.083       .  S
C957        C958   1.406       .  A
C957        H962   1.083       .  S
C958        C959   1.407       .  A
C959        C960   1.399       .  A
C959        H963   1.083       .  S
C960        H964   1.083       .  S
C965        C966   1.405       .  A
C965        C970   1.401       .  A
C965        H975   1.083       .  S
C966        C971   1.483       .  S
C966        C967   1.403       .  A
C967        C968   1.397       .  A
C967        H972   1.083       .  S
C968        C969   1.407       .  A
C968        H973   1.083       .  S
C969        C970   1.406       .  A
C970        H974   1.083       .  S
C971        C976   1.404       .  A
C971        C980   1.405       .  A
C976        C977   1.400       .  A
C976        H981   1.083       .  S
C977        C978   1.407       .  A
C977        H982   1.083       .  S
C978        C979   1.405       .  A
C979        C980   1.398       .  A
C979        H983   1.083       .  S
C980        H984   1.083       .  S
C985        C986   1.407       .  A
C985        C990   1.400       .  A
C985        H995   1.082       .  S
C986        C991   1.489       .  S
C986        C987   1.406       .  A
C987        C988   1.395       .  A
C987        H992   1.082       .  S
C988        C989   1.405       .  A
C988        H993   1.083       .  S
C989        C990   1.405       .  A
C990        H994   1.083       .  S
C991        C996   1.408       .  A
C991       C1000   1.406       .  A
C996        C997   1.399       .  A
C996       H1001   1.082       .  S
C997        C998   1.404       .  A
C997       H1002   1.083       .  S
C998        C999   1.405       .  A
C999       C1000   1.395       .  A
C999       H1003   1.083       .  S
C1000      H1004   1.082       .  S
C1005      C1006   1.407       .  A
C1005      C1010   1.401       .  A
C1005      H1015   1.083       .  S
C1006      C1011   1.484       .  S
C1006      C1007   1.404       .  A
C1007      C1008   1.395       .  A
C1007      H1012   1.083       .  S
C1008      C1009   1.404       .  A
C1008      H1013   1.083       .  S
C1009      C1010   1.405       .  A
C1010      H1014   1.083       .  S
C1011      C1016   1.404       .  A
C1011      C1020   1.406       .  A
C1016      C1017   1.399       .  A
C1016      H1021   1.083       .  S
C1017      C1018   1.406       .  A
C1017      H1022   1.083       .  S
C1018      C1019   1.406       .  A
C1019      C1020   1.398       .  A
C1019      H1023   1.083       .  S
C1020      H1024   1.083       .  S
C1025      C1026   1.406       .  A
C1025      C1030   1.399       .  A
C1025      H1035   1.083       .  S
C1026      C1031   1.487       .  S
C1026      C1027   1.406       .  A
C1027      C1028   1.399       .  A
C1027      H1032   1.083       .  S
C1028      C1029   1.406       .  A
C1028      H1033   1.083       .  S
C1029      C1030   1.405       .  A
C1030      H1034   1.083       .  S
C1031      C1036   1.406       .  A
C1031      C1040   1.405       .  A
C1036      C1037   1.400       .  A
C1036      H1041   1.083       .  S
C1037      C1038   1.406       .  A
C1037      H1042   1.083       .  S
C1038      C1039   1.407       .  A
C1039      C1040   1.399       .  A
C1039      H1043   1.083       .  S
C1040      H1044   1.083       .  S
C1045      C1046   1.402       .  A
C1045      C1050   1.390       .  A
C1045      H1055   1.083       .  S
C1046      C1051   1.484       .  S
C1046      C1047   1.409       .  A
C1047      C1048   1.408       .  A
C1047      H1052   1.083       .  S
C1048      C1049   1.407       .  A
C1048      H1053   1.083       .  S
C1049      C1050   1.404       .  A
C1050      H1054   1.084       .  S
C1051      C1056   1.405       .  A
C1051      C1060   1.404       .  A
C1056      C1057   1.396       .  A
C1056      H1061   1.083       .  S
C1057      C1058   1.406       .  A
C1057      H1062   1.083       .  S
C1058      C1059   1.408       .  A
C1059      C1060   1.402       .  A
C1059      H1063   1.083       .  S
C1060      H1064   1.083       .  S
C1065      C1066   1.406       .  A
C1065      C1070   1.400       .  A
C1065      H1075   1.083       .  S
C1066      C1071   1.485       .  S
C1066      C1067   1.405       .  A
C1067      C1068   1.398       .  A
C1067      H1072   1.083       .  S
C1068      C1069   1.405       .  A
C1068      H1073   1.083       .  S
C1069      C1070   1.405       .  A
C1070      H1074   1.083       .  S
C1071      C1076   1.405       .  A
C1071      C1080   1.404       .  A
C1076      C1077   1.400       .  A
C1076      H1081   1.083       .  S
C1077      C1078   1.407       .  A
C1077      H1082   1.083       .  S
C1078      C1079   1.407       .  A
C1079      C1080   1.397       .  A
C1079      H1083   1.083       .  S
C1080      H1084   1.083       .  S
C1085      C1086   1.406       .  A
C1085      C1090   1.401       .  A
C1085      H1095   1.083       .  S
C1086      C1091   1.487       .  S
C1086      C1087   1.406       .  A
C1087      C1088   1.395       .  A
C1087      H1092   1.083       .  S
C1088      C1089   1.405       .  A
C1088      H1093   1.083       .  S
C1089      C1090   1.407       .  A
C1090      H1094   1.083       .  S
C1091      C1096   1.408       .  A
C1091      C1100   1.405       .  A
C1096      C1097   1.402       .  A
C1096      H1101   1.083       .  S
C1097      C1098   1.406       .  A
C1097      H1102   1.083       .  S
C1098      C1099   1.404       .  A
C1099      C1100   1.394       .  A
C1099      H1103   1.083       .  S
C1100      H1104   1.083       .  S
C1105      C1106   1.406       .  A
C1105      C1110   1.401       .  A
C1105      H1115   1.083       .  S
C1106      C1111   1.484       .  S
C1106      C1107   1.404       .  A
C1107      C1108   1.395       .  A
C1107      H1112   1.083       .  S
C1108      C1109   1.405       .  A
C1108      H1113   1.083       .  S
C1109      C1110   1.406       .  A
C1110      H1114   1.083       .  S
C1111      C1116   1.405       .  A
C1111      C1120   1.405       .  A
C1116      C1117   1.399       .  A
C1116      H1121   1.083       .  S
C1117      C1118   1.406       .  A
C1117      H1122   1.083       .  S
C1118      C1119   1.405       .  A
C1119      C1120   1.398       .  A
C1119      H1123   1.083       .  S
C1120      H1124   1.083       .  S
C1125      C1126   1.404       .  A
C1125      C1130   1.398       .  A
C1125      H1135   1.083       .  S
C1126      C1131   1.479       .  S
C1126      C1127   1.403       .  A
C1127      C1128   1.398       .  A
C1127      H1132   1.083       .  S
C1128      C1129   1.406       .  A
C1128      H1133   1.083       .  S
C1129      C1130   1.406       .  A
C1130      H1134   1.083       .  S
C1131      C1136   1.403       .  A
C1131      C1140   1.404       .  A
C1136      C1137   1.397       .  A
C1136      H1141   1.083       .  S
C1137      C1138   1.407       .  A
C1137      H1142   1.083       .  S
C1138      C1139   1.406       .  A
C1139      C1140   1.399       .  A
C1139      H1143   1.083       .  S
C1140      H1144   1.083       .  S
C1145      C1146   1.405       .  A
C1145      C1150   1.399       .  A
C1145      H1155   1.083       .  S
C1146      C1151   1.484       .  S
C1146      C1147   1.405       .  A
C1147      C1148   1.399       .  A
C1147      H1152   1.083       .  S
C1148      C1149   1.404       .  A
C1148      H1153   1.083       .  S
C1149      C1150   1.405       .  A
C1150      H1154   1.083       .  S
C1151      C1156   1.405       .  A
C1151      C1160   1.404       .  A
C1156      C1157   1.400       .  A
C1156      H1161   1.083       .  S
C1157      C1158   1.407       .  A
C1157      H1162   1.083       .  S
C1158      C1159   1.407       .  A
C1159      C1160   1.399       .  A
C1159      H1163   1.083       .  S
C1160      H1164   1.083       .  S
C1165      C1166   1.407       .  A
C1165      C1170   1.402       .  A
C1165      H1175   1.083       .  S
C1166      C1171   1.481       .  S
C1166      C1167   1.404       .  A
C1167      C1168   1.394       .  A
C1167      H1172   1.083       .  S
C1168      C1169   1.404       .  A
C1168      H1173   1.083       .  S
C1169      C1170   1.404       .  A
C1170      H1174   1.083       .  S
C1171      C1176   1.405       .  A
C1171      C1180   1.404       .  A
C1176      C1177   1.399       .  A
C1176      H1181   1.083       .  S
C1177      C1178   1.406       .  A
C1177      H1182   1.083       .  S
C1178      C1179   1.407       .  A
C1179      C1180   1.396       .  A
C1179      H1183   1.083       .  S
C1180      H1184   1.083       .  S
C1185      C1186   1.402       .  A
C1185      C1190   1.389       .  A
C1185      H1195   1.084       .  S
C1186      C1191   1.482       .  S
C1186      C1187   1.407       .  A
C1187      C1188   1.407       .  A
C1187      H1192   1.083       .  S
C1188      C1189   1.409       .  A
C1188      H1193   1.083       .  S
C1189      C1190   1.406       .  A
C1190      H1194   1.083       .  S
C1191      C1196   1.404       .  A
C1191      C1200   1.407       .  A
C1196      C1197   1.392       .  A
C1196      H1201   1.083       .  S
C1197      C1198   1.402       .  A
C1197      H1202   1.084       .  S
C1198      C1199   1.404       .  A
C1199      C1200   1.405       .  A
C1199      H1203   1.083       .  S
C1200      H1204   1.083       .  S
C1205      C1206   1.407       .  A
C1205      C1210   1.398       .  A
C1205      H1215   1.082       .  S
C1206      C1211   1.492       .  S
C1206      C1207   1.408       .  A
C1207      C1208   1.399       .  A
C1207      H1212   1.082       .  S
C1208      C1209   1.405       .  A
C1208      H1213   1.083       .  S
C1209      C1210   1.406       .  A
C1210      H1214   1.083       .  S
C1211      C1216   1.408       .  A
C1211      C1220   1.407       .  A
C1216      C1217   1.400       .  A
C1216      H1221   1.082       .  S
C1217      C1218   1.404       .  A
C1217      H1222   1.083       .  S
C1218      C1219   1.405       .  A
C1219      C1220   1.398       .  A
C1219      H1223   1.083       .  S
C1220      H1224   1.082       .  S
C1225      C1226   1.408       .  A
C1225      C1230   1.407       .  A
C1225      H1235   1.083       .  S
C1226      C1231   1.483       .  S
C1226      C1227   1.402       .  A
C1227      C1228   1.391       .  A
C1227      H1232   1.083       .  S
C1228      C1229   1.405       .  A
C1228      H1233   1.083       .  S
C1229      C1230   1.406       .  A
C1230      H1234   1.083       .  S
C1231      C1236   1.404       .  A
C1231      C1240   1.404       .  A
C1236      C1237   1.402       .  A
C1236      H1241   1.083       .  S
C1237      C1238   1.408       .  A
C1237      H1242   1.083       .  S
C1238      C1239   1.407       .  A
C1239      C1240   1.397       .  A
C1239      H1243   1.083       .  S
C1240      H1244   1.083       .  S
C1245      C1246   1.409       .  A
C1245      C1250   1.403       .  A
C1245      H1255   1.083       .  S
C1246      C1251   1.484       .  S
C1246      C1247   1.404       .  A
C1247      C1248   1.393       .  A
C1247      H1252   1.083       .  S
C1248      C1249   1.403       .  A
C1248      H1253   1.084       .  S
C1249      C1250   1.404       .  A
C1250      H1254   1.083       .  S
C1251      C1256   1.405       .  A
C1251      C1260   1.406       .  A
C1256      C1257   1.398       .  A
C1256      H1261   1.083       .  S
C1257      C1258   1.407       .  A
C1257      H1262   1.083       .  S
C1258      C1259   1.406       .  A
C1259      C1260   1.398       .  A
C1259      H1263   1.083       .  S
C1260      H1264   1.083       .  S
C1265      C1266   1.400       .  A
C1265      C1270   1.390       .  A
C1265      H1275   1.084       .  S
C1266      C1271   1.474       .  S
C1266      C1267   1.404       .  A
C1267      C1268   1.406       .  A
C1267      H1272   1.083       .  S
C1268      C1269   1.408       .  A
C1268      H1273   1.083       .  S
C1269      C1270   1.405       .  A
C1270      H1274   1.083       .  S
C1271      C1276   1.404       .  A
C1271      C1280   1.400       .  A
C1276      C1277   1.406       .  A
C1276      H1281   1.083       .  S
C1277      C1278   1.408       .  A
C1277      H1282   1.083       .  S
C1278      C1279   1.405       .  A
C1279      C1280   1.390       .  A
C1279      H1283   1.083       .  S
C1280      H1284   1.084       .  S
C1285      C1286   1.402       .  A
C1285      C1290   1.395       .  A
C1285      H1295   1.083       .  S
C1286      C1291   1.476       .  S
C1286      C1287   1.404       .  A
C1287      C1288   1.399       .  A
C1287      H1292   1.083       .  S
C1288      C1289   1.406       .  A
C1288      H1293   1.083       .  S
C1289      C1290   1.406       .  A
C1290      H1294   1.083       .  S
C1291      C1296   1.403       .  A
C1291      C1300   1.403       .  A
C1296      C1297   1.397       .  A
C1296      H1301   1.083       .  S
C1297      C1298   1.406       .  A
C1297      H1302   1.083       .  S
C1298      C1299   1.406       .  A
C1299      C1300   1.397       .  A
C1299      H1303   1.083       .  S
C1300      H1304   1.083       .  S
C1305      C1306   1.404       .  A
C1305      C1310   1.398       .  A
C1305      H1315   1.083       .  S
C1306      C1311   1.477       .  S
C1306      C1307   1.403       .  A
C1307      C1308   1.395       .  A
C1307      H1312   1.083       .  S
C1308      C1309   1.406       .  A
C1308      H1313   1.083       .  S
C1309      C1310   1.406       .  A
C1310      H1314   1.083       .  S
C1311      C1316   1.405       .  A
C1311      C1320   1.403       .  A
C1316      C1317   1.400       .  A
C1316      H1321   1.083       .  S
C1317      C1318   1.404       .  A
C1317      H1322   1.083       .  S
C1318      C1319   1.403       .  A
C1319      C1320   1.392       .  A
C1319      H1323   1.083       .  S
C1320      H1324   1.083       .  S
C1325      C1326   1.408       .  A
C1325      C1330   1.398       .  A
C1325      H1335   1.082       .  S
C1326      C1331   1.496       .  S
C1326      C1327   1.410       .  A
C1327      C1328   1.401       .  A
C1327      H1332   1.082       .  S
C1328      C1329   1.404       .  A
C1328      H1333   1.083       .  S
C1329      C1330   1.405       .  A
C1330      H1334   1.083       .  S
C1331      C1336   1.410       .  A
C1331      C1340   1.408       .  A
C1336      C1337   1.401       .  A
C1336      H1341   1.082       .  S
C1337      C1338   1.404       .  A
C1337      H1342   1.083       .  S
C1338      C1339   1.405       .  A
C1339      C1340   1.397       .  A
C1339      H1343   1.083       .  S
C1340      H1344   1.082       .  S
C1345      C1346   1.409       .  A
C1345      C1350   1.404       .  A
C1345      H1355   1.082       .  S
C1346      C1351   1.489       .  S
C1346      C1347   1.405       .  A
C1347      C1348   1.391       .  A
C1347      H1352   1.083       .  S
C1348      C1349   1.404       .  A
C1348      H1353   1.083       .  S
C1349      C1350   1.406       .  A
C1350      H1354   1.083       .  S
C1351      C1356   1.407       .  A
C1351      C1360   1.406       .  A
C1356      C1357   1.403       .  A
C1356      H1361   1.083       .  S
C1357      C1358   1.407       .  A
C1357      H1362   1.083       .  S
C1358      C1359   1.404       .  A
C1359      C1360   1.393       .  A
C1359      H1363   1.083       .  S
C1360      H1364   1.083       .  S
C1365      C1366   1.405       .  A
C1365      C1370   1.399       .  A
C1365      H1375   1.083       .  S
C1366      C1371   1.482       .  S
C1366      C1367   1.405       .  A
C1367      C1368   1.396       .  A
C1367      H1372   1.083       .  S
C1368      C1369   1.405       .  A
C1368      H1373   1.083       .  S
C1369      C1370   1.406       .  A
C1370      H1374   1.083       .  S
C1371      C1376   1.405       .  A
C1371      C1380   1.404       .  A
C1376      C1377   1.400       .  A
C1376      H1381   1.083       .  S
C1377      C1378   1.407       .  A
C1377      H1382   1.083       .  S
C1378      C1379   1.405       .  A
C1379      C1380   1.396       .  A
C1379      H1383   1.083       .  S
C1380      H1384   1.083       .  S
C1385      C1386   1.407       .  A
C1385      C1390   1.396       .  A
C1385      H1395   1.082       .  S
C1386      C1391   1.492       .  S
C1386      C1387   1.408       .  A
C1387      C1388   1.402       .  A
C1387      H1392   1.082       .  S
C1388      C1389   1.405       .  A
C1388      H1393   1.083       .  S
C1389      C1390   1.405       .  A
C1390      H1394   1.083       .  S
C1391      C1396   1.407       .  A
C1391      C1400   1.407       .  A
C1396      C1397   1.396       .  A
C1396      H1401   1.083       .  S
C1397      C1398   1.405       .  A
C1397      H1402   1.083       .  S
C1398      C1399   1.407       .  A
C1399      C1400   1.401       .  A
C1399      H1403   1.083       .  S
C1400      H1404   1.082       .  S
C1405      C1406   1.407       .  A
C1405      C1410   1.401       .  A
C1405      H1415   1.083       .  S
C1406      C1411   1.486       .  S
C1406      C1407   1.405       .  A
C1407      C1408   1.394       .  A
C1407      H1412   1.083       .  S
C1408      C1409   1.404       .  A
C1408      H1413   1.083       .  S
C1409      C1410   1.406       .  A
C1410      H1414   1.083       .  S
C1411      C1416   1.405       .  A
C1411      C1420   1.407       .  A
C1416      C1417   1.394       .  A
C1416      H1421   1.083       .  S
C1417      C1418   1.405       .  A
C1417      H1422   1.083       .  S
C1418      C1419   1.407       .  A
C1419      C1420   1.401       .  A
C1419      H1423   1.083       .  S
C1420      H1424   1.083       .  S
C1425      C1426   1.403       .  A
C1425      C1430   1.396       .  A
C1425      H1435   1.083       .  S
C1426      C1431   1.481       .  S
C1426      C1427   1.405       .  A
C1427      C1428   1.400       .  A
C1427      H1432   1.083       .  S
C1428      C1429   1.405       .  A
C1428      H1433   1.083       .  S
C1429      C1430   1.406       .  A
C1430      H1434   1.083       .  S
C1431      C1436   1.404       .  A
C1431      C1440   1.404       .  A
C1436      C1437   1.397       .  A
C1436      H1441   1.083       .  S
C1437      C1438   1.406       .  A
C1437      H1442   1.083       .  S
C1438      C1439   1.405       .  A
C1439      C1440   1.399       .  A
C1439      H1443   1.083       .  S
C1440      H1444   1.083       .  S
C1445      C1446   1.404       .  A
C1445      C1450   1.399       .  A
C1445      H1455   1.083       .  S
C1446      C1451   1.482       .  S
C1446      C1447   1.404       .  A
C1447      C1448   1.397       .  A
C1447      H1452   1.083       .  S
C1448      C1449   1.405       .  A
C1448      H1453   1.083       .  S
C1449      C1450   1.407       .  A
C1450      H1454   1.083       .  S
C1451      C1456   1.405       .  A
C1451      C1460   1.404       .  A
C1456      C1457   1.400       .  A
C1456      H1461   1.083       .  S
C1457      C1458   1.406       .  A
C1457      H1462   1.083       .  S
C1458      C1459   1.405       .  A
C1459      C1460   1.396       .  A
C1459      H1463   1.083       .  S
C1460      H1464   1.083       .  S
C1465      C1466   1.405       .  A
C1465      C1470   1.392       .  A
C1465      H1475   1.083       .  S
C1466      C1471   1.485       .  S
C1466      C1467   1.407       .  A
C1467      C1468   1.401       .  A
C1467      H1472   1.083       .  S
C1468      C1469   1.405       .  A
C1468      H1473   1.083       .  S
C1469      C1470   1.403       .  A
C1470      H1474   1.083       .  S
C1471      C1476   1.405       .  A
C1471      C1480   1.407       .  A
C1476      C1477   1.392       .  A
C1476      H1481   1.083       .  S
C1477      C1478   1.404       .  A
C1477      H1482   1.083       .  S
C1478      C1479   1.406       .  A
C1479      C1480   1.401       .  A
C1479      H1483   1.083       .  S
C1480      H1484   1.083       .  S
C1485      C1486   1.406       .  A
C1485      C1490   1.393       .  A
C1485      H1495   1.083       .  S
C1486      C1491   1.485       .  S
C1486      C1487   1.406       .  A
C1487      C1488   1.400       .  A
C1487      H1492   1.083       .  S
C1488      C1489   1.407       .  A
C1488      H1493   1.083       .  S
C1489      C1490   1.404       .  A
C1490      H1494   1.083       .  S
C1491      C1496   1.405       .  A
C1491      C1500   1.408       .  A
C1496      C1497   1.392       .  A
C1496      H1501   1.083       .  S
C1497      C1498   1.403       .  A
C1497      H1502   1.083       .  S
C1498      C1499   1.405       .  A
C1499      C1500   1.402       .  A
C1499      H1503   1.083       .  S
C1500      H1504   1.083       .  S
C1505      C1506   1.405       .  A
C1505      C1510   1.393       .  A
C1505      H1515   1.083       .  S
C1506      C1511   1.486       .  S
C1506      C1507   1.406       .  A
C1507      C1508   1.401       .  A
C1507      H1512   1.083       .  S
C1508      C1509   1.407       .  A
C1508      H1513   1.083       .  S
C1509      C1510   1.405       .  A
C1510      H1514   1.083       .  S
C1511      C1516   1.405       .  A
C1511      C1520   1.408       .  A
C1516      C1517   1.393       .  A
C1516      H1521   1.083       .  S
C1517      C1518   1.404       .  A
C1517      H1522   1.083       .  S
C1518      C1519   1.405       .  A
C1519      C1520   1.402       .  A
C1519      H1523   1.083       .  S
C1520      H1524   1.082       .  S
C1525      C1526   1.403       .  A
C1525      C1530   1.398       .  A
C1525      H1535   1.083       .  S
C1526      C1531   1.479       .  S
C1526      C1527   1.404       .  A
C1527      C1528   1.397       .  A
C1527      H1532   1.083       .  S
C1528      C1529   1.406       .  A
C1528      H1533   1.083       .  S
C1529      C1530   1.407       .  A
C1530      H1534   1.083       .  S
C1531      C1536   1.405       .  A
C1531      C1540   1.403       .  A
C1536      C1537   1.400       .  A
C1536      H1541   1.083       .  S
C1537      C1538   1.405       .  A
C1537      H1542   1.083       .  S
C1538      C1539   1.406       .  A
C1539      C1540   1.396       .  A
C1539      H1543   1.083       .  S
C1540      H1544   1.083       .  S
C1545      C1546   1.405       .  A
C1545      C1550   1.397       .  A
C1545      H1555   1.083       .  S
C1546      C1551   1.484       .  S
C1546      C1547   1.405       .  A
C1547      C1548   1.399       .  A
C1547      H1552   1.083       .  S
C1548      C1549   1.407       .  A
C1548      H1553   1.083       .  S
C1549      C1550   1.405       .  A
C1550      H1554   1.083       .  S
C1551      C1556   1.405       .  A
C1551      C1560   1.405       .  A
C1556      C1557   1.398       .  A
C1556      H1561   1.083       .  S
C1557      C1558   1.405       .  A
C1557      H1562   1.083       .  S
C1558      C1559   1.406       .  A
C1559      C1560   1.400       .  A
C1559      H1563   1.083       .  S
C1560      H1564   1.083       .  S
C1565      C1566   1.403       .  A
C1565      C1570   1.393       .  A
C1565      H1575   1.083       .  S
C1566      C1571   1.481       .  S
C1566      C1567   1.406       .  A
C1567      C1568   1.404       .  A
C1567      H1572   1.083       .  S
C1568      C1569   1.405       .  A
C1568      H1573   1.083       .  S
C1569      C1570   1.404       .  A
C1570      H1574   1.083       .  S
C1571      C1576   1.404       .  A
C1571      C1580   1.403       .  A
C1576      C1577   1.401       .  A
C1576      H1581   1.083       .  S
C1577      C1578   1.407       .  A
C1577      H1582   1.083       .  S
C1578      C1579   1.407       .  A
C1579      C1580   1.396       .  A
C1579      H1583   1.083       .  S
C1580      H1584   1.083       .  S
C1585      C1586   1.404       .  A
C1585      C1590   1.394       .  A
C1585      H1595   1.083       .  S
C1586      C1591   1.476       .  S
C1586      C1587   1.404       .  A
C1587      C1588   1.398       .  A
C1587      H1592   1.083       .  S
C1588      C1589   1.404       .  A
C1588      H1593   1.083       .  S
C1589      C1590   1.403       .  A
C1590      H1594   1.083       .  S
C1591      C1596   1.404       .  A
C1591      C1600   1.403       .  A
C1596      C1597   1.396       .  A
C1596      H1601   1.083       .  S
C1597      C1598   1.406       .  A
C1597      H1602   1.083       .  S
C1598      C1599   1.406       .  A
C1599      C1600   1.396       .  A
C1599      H1603   1.083       .  S
C1600      H1604   1.083       .  S
C1605      C1606   1.407       .  A
C1605      C1610   1.395       .  A
C1605      H1615   1.083       .  S
C1606      C1611   1.489       .  S
C1606      C1607   1.409       .  A
C1607      C1608   1.402       .  A
C1607      H1612   1.082       .  S
C1608      C1609   1.402       .  A
C1608      H1613   1.083       .  S
C1609      C1610   1.401       .  A
C1610      H1614   1.084       .  S
C1611      C1616   1.405       .  A
C1611      C1620   1.409       .  A
C1616      C1617   1.391       .  A
C1616      H1621   1.083       .  S
C1617      C1618   1.405       .  A
C1617      H1622   1.083       .  S
C1618      C1619   1.405       .  A
C1619      C1620   1.404       .  A
C1619      H1623   1.083       .  S
C1620      H1624   1.082       .  S
C1625      C1626   1.409       .  A
C1625      C1630   1.405       .  A
C1625      H1635   1.083       .  S
C1626      C1631   1.487       .  S
C1626      C1627   1.405       .  A
C1627      C1628   1.392       .  A
C1627      H1632   1.083       .  S
C1628      C1629   1.402       .  A
C1628      H1633   1.084       .  S
C1629      C1630   1.404       .  A
C1630      H1634   1.083       .  S
C1631      C1636   1.405       .  A
C1631      C1640   1.406       .  A
C1636      C1637   1.396       .  A
C1636      H1641   1.083       .  S
C1637      C1638   1.407       .  A
C1637      H1642   1.083       .  S
C1638      C1639   1.407       .  A
C1639      C1640   1.402       .  A
C1639      H1643   1.083       .  S
C1640      H1644   1.083       .  S
C1645      C1646   1.404       .  A
C1645      C1650   1.400       .  A
C1645      H1655   1.083       .  S
C1646      C1651   1.475       .  S
C1646      C1647   1.402       .  A
C1647      C1648   1.396       .  A
C1647      H1652   1.083       .  S
C1648      C1649   1.404       .  A
C1648      H1653   1.083       .  S
C1649      C1650   1.403       .  A
C1650      H1654   1.083       .  S
C1651      C1656   1.403       .  A
C1651      C1660   1.404       .  A
C1656      C1657   1.395       .  A
C1656      H1661   1.083       .  S
C1657      C1658   1.402       .  A
C1657      H1662   1.083       .  S
C1658      C1659   1.404       .  A
C1659      C1660   1.400       .  A
C1659      H1663   1.083       .  S
C1660      H1664   1.083       .  S
C1665      C1666   1.407       .  A
C1665      C1670   1.406       .  A
C1665      H1675   1.083       .  S
C1666      C1671   1.484       .  S
C1666      C1667   1.402       .  A
C1667      C1668   1.390       .  A
C1667      H1672   1.083       .  S
C1668      C1669   1.406       .  A
C1668      H1673   1.083       .  S
C1669      C1670   1.408       .  A
C1670      H1674   1.083       .  S
C1671      C1676   1.406       .  A
C1671      C1680   1.405       .  A
C1676      C1677   1.404       .  A
C1676      H1681   1.083       .  S
C1677      C1678   1.405       .  A
C1677      H1682   1.083       .  S
C1678      C1679   1.404       .  A
C1679      C1680   1.393       .  A
C1679      H1683   1.083       .  S
C1680      H1684   1.083       .  S
C1685      C1686   1.405       .  A
C1685      C1690   1.405       .  A
C1685      H1695   1.083       .  S
C1686      C1691   1.476       .  S
C1686      C1687   1.402       .  A
C1687      C1688   1.390       .  A
C1687      H1692   1.084       .  S
C1688      C1689   1.402       .  A
C1688      H1693   1.084       .  S
C1689      C1690   1.406       .  A
C1690      H1694   1.083       .  S
C1691      C1696   1.401       .  A
C1691      C1700   1.405       .  A
C1696      C1697   1.387       .  A
C1696      H1701   1.084       .  S
C1697      C1698   1.406       .  A
C1697      H1702   1.083       .  S
C1698      C1699   1.408       .  A
C1699      C1700   1.406       .  A
C1699      H1703   1.083       .  S
C1700      H1704   1.083       .  S
C1705      C1706   1.403       .  A
C1705      C1710   1.393       .  A
C1705      H1715   1.083       .  S
C1706      C1711   1.479       .  S
C1706      C1707   1.406       .  A
C1707      C1708   1.401       .  A
C1707      H1712   1.083       .  S
C1708      C1709   1.404       .  A
C1708      H1713   1.083       .  S
C1709      C1710   1.404       .  A
C1710      H1714   1.083       .  S
C1711      C1716   1.403       .  A
C1711      C1720   1.404       .  A
C1716      C1717   1.396       .  A
C1716      H1721   1.083       .  S
C1717      C1718   1.406       .  A
C1717      H1722   1.083       .  S
C1718      C1719   1.407       .  A
C1719      C1720   1.398       .  A
C1719      H1723   1.083       .  S
C1720      H1724   1.083       .  S
C1725      C1726   1.407       .  A
C1725      C1730   1.403       .  A
C1725      H1735   1.083       .  S
C1726      C1731   1.485       .  S
C1726      C1727   1.405       .  A
C1727      C1728   1.394       .  A
C1727      H1732   1.083       .  S
C1728      C1729   1.403       .  A
C1728      H1733   1.084       .  S
C1729      C1730   1.405       .  A
C1730      H1734   1.083       .  S
C1731      C1736   1.406       .  A
C1731      C1740   1.404       .  A
C1736      C1737   1.401       .  A
C1736      H1741   1.083       .  S
C1737      C1738   1.407       .  A
C1737      H1742   1.083       .  S
C1738      C1739   1.407       .  A
C1739      C1740   1.396       .  A
C1739      H1743   1.083       .  S
C1740      H1744   1.083       .  S
C1745      C1746   1.405       .  A
C1745      C1750   1.401       .  A
C1745      H1755   1.083       .  S
C1746      C1751   1.481       .  S
C1746      C1747   1.402       .  A
C1747      C1748   1.395       .  A
C1747      H1752   1.083       .  S
C1748      C1749   1.408       .  A
C1748      H1753   1.083       .  S
C1749      C1750   1.407       .  A
C1750      H1754   1.083       .  S
C1751      C1756   1.404       .  A
C1751      C1760   1.405       .  A
C1756      C1757   1.399       .  A
C1756      H1761   1.083       .  S
C1757      C1758   1.404       .  A
C1757      H1762   1.083       .  S
C1758      C1759   1.405       .  A
C1759      C1760   1.398       .  A
C1759      H1763   1.083       .  S
C1760      H1764   1.083       .  S
C1765      C1766   1.400       .  A
C1765      C1770   1.394       .  A
C1765      H1775   1.083       .  S
C1766      C1771   1.475       .  S
C1766      C1767   1.404       .  A
C1767      C1768   1.401       .  A
C1767      H1772   1.083       .  S
C1768      C1769   1.407       .  A
C1768      H1773   1.083       .  S
C1769      C1770   1.408       .  A
C1770      H1774   1.083       .  S
C1771      C1776   1.403       .  A
C1771      C1780   1.402       .  A
C1776      C1777   1.398       .  A
C1776      H1781   1.083       .  S
C1777      C1778   1.406       .  A
C1777      H1782   1.083       .  S
C1778      C1779   1.406       .  A
C1779      C1780   1.398       .  A
C1779      H1783   1.083       .  S
C1780      H1784   1.083       .  S
C1785      C1786   1.404       .  A
C1785      C1790   1.395       .  A
C1785      H1795   1.083       .  S
C1786      C1791   1.481       .  S
C1786      C1787   1.404       .  A
C1787      C1788   1.399       .  A
C1787      H1792   1.083       .  S
C1788      C1789   1.407       .  A
C1788      H1793   1.083       .  S
C1789      C1790   1.406       .  A
C1790      H1794   1.083       .  S
C1791      C1796   1.403       .  A
C1791      C1800   1.407       .  A
C1796      C1797   1.391       .  A
C1796      H1801   1.083       .  S
C1797      C1798   1.405       .  A
C1797      H1802   1.083       .  S
C1798      C1799   1.405       .  A
C1799      C1800   1.403       .  A
C1799      H1803   1.083       .  S
C1800      H1804   1.083       .  S
C1805      C1806   1.401       .  A
C1805      C1810   1.389       .  A
C1805      H1815   1.084       .  S
C1806      C1811   1.476       .  S
C1806      C1807   1.405       .  A
C1807      C1808   1.406       .  A
C1807      H1812   1.083       .  S
C1808      C1809   1.406       .  A
C1808      H1813   1.083       .  S
C1809      C1810   1.403       .  A
C1810      H1814   1.084       .  S
C1811      C1816   1.405       .  A
C1811      C1820   1.401       .  A
C1816      C1817   1.406       .  A
C1816      H1821   1.083       .  S
C1817      C1818   1.408       .  A
C1817      H1822   1.083       .  S
C1818      C1819   1.406       .  A
C1819      C1820   1.389       .  A
C1819      H1823   1.083       .  S
C1820      H1824   1.084       .  S
C1825      C1826   1.405       .  A
C1825      C1830   1.406       .  A
C1825      H1835   1.083       .  S
C1826      C1831   1.475       .  S
C1826      C1827   1.401       .  A
C1827      C1828   1.390       .  A
C1827      H1832   1.084       .  S
C1828      C1829   1.403       .  A
C1828      H1833   1.084       .  S
C1829      C1830   1.407       .  A
C1830      H1834   1.083       .  S
C1831      C1836   1.401       .  A
C1831      C1840   1.403       .  A
C1836      C1837   1.391       .  A
C1836      H1841   1.084       .  S
C1837      C1838   1.406       .  A
C1837      H1842   1.083       .  S
C1838      C1839   1.408       .  A
C1839      C1840   1.405       .  A
C1839      H1843   1.083       .  S
C1840      H1844   1.083       .  S
C1845      C1846   1.404       .  A
C1845      C1850   1.398       .  A
C1845      H1855   1.083       .  S
C1846      C1851   1.481       .  S
C1846      C1847   1.404       .  A
C1847      C1848   1.398       .  A
C1847      H1852   1.083       .  S
C1848      C1849   1.406       .  A
C1848      H1853   1.083       .  S
C1849      C1850   1.406       .  A
C1850      H1854   1.083       .  S
C1851      C1856   1.404       .  A
C1851      C1860   1.404       .  A
C1856      C1857   1.398       .  A
C1856      H1861   1.083       .  S
C1857      C1858   1.405       .  A
C1857      H1862   1.083       .  S
C1858      C1859   1.405       .  A
C1859      C1860   1.399       .  A
C1859      H1863   1.083       .  S
C1860      H1864   1.083       .  S
C1865      C1866   1.405       .  A
C1865      C1870   1.400       .  A
C1865      H1875   1.083       .  S
C1866      C1871   1.482       .  S
C1866      C1867   1.403       .  A
C1867      C1868   1.397       .  A
C1867      H1872   1.083       .  S
C1868      C1869   1.407       .  A
C1868      H1873   1.083       .  S
C1869      C1870   1.406       .  A
C1870      H1874   1.083       .  S
C1871      C1876   1.405       .  A
C1871      C1880   1.404       .  A
C1876      C1877   1.399       .  A
C1876      H1881   1.083       .  S
C1877      C1878   1.405       .  A
C1877      H1882   1.083       .  S
C1878      C1879   1.407       .  A
C1879      C1880   1.398       .  A
C1879      H1883   1.083       .  S
C1880      H1884   1.083       .  S
C1885      C1886   1.405       .  A
C1885      C1890   1.401       .  A
C1885      H1895   1.083       .  S
C1886      C1891   1.482       .  S
C1886      C1887   1.403       .  A
C1887      C1888   1.398       .  A
C1887      H1892   1.083       .  S
C1888      C1889   1.408       .  A
C1888      H1893   1.083       .  S
C1889      C1890   1.407       .  A
C1890      H1894   1.083       .  S
C1891      C1896   1.404       .  A
C1891      C1900   1.404       .  A
C1896      C1897   1.400       .  A
C1896      H1901   1.083       .  S
C1897      C1898   1.407       .  A
C1897      H1902   1.083       .  S
C1898      C1899   1.406       .  A
C1899      C1900   1.398       .  A
C1899      H1903   1.083       .  S
C1900      H1904   1.083       .  S
C1905      C1906   1.404       .  A
C1905      C1910   1.398       .  A
C1905      H1915   1.083       .  S
C1906      C1911   1.480       .  S
C1906      C1907   1.404       .  A
C1907      C1908   1.398       .  A
C1907      H1912   1.083       .  S
C1908      C1909   1.406       .  A
C1908      H1913   1.083       .  S
C1909      C1910   1.406       .  A
C1910      H1914   1.083       .  S
C1911      C1916   1.404       .  A
C1911      C1920   1.404       .  A
C1916      C1917   1.398       .  A
C1916      H1921   1.083       .  S
C1917      C1918   1.406       .  A
C1917      H1922   1.083       .  S
C1918      C1919   1.406       .  A
C1919      C1920   1.398       .  A
C1919      H1923   1.083       .  S
C1920      H1924   1.083       .  S
C1925      C1926   1.404       .  A
C1925      C1930   1.397       .  A
C1925      H1935   1.083       .  S
C1926      C1931   1.484       .  S
C1926      C1927   1.405       .  A
C1927      C1928   1.403       .  A
C1927      H1932   1.083       .  S
C1928      C1929   1.407       .  A
C1928      H1933   1.083       .  S
C1929      C1930   1.406       .  A
C1930      H1934   1.083       .  S
C1931      C1936   1.403       .  A
C1931      C1940   1.405       .  A
C1936      C1937   1.397       .  A
C1936      H1941   1.083       .  S
C1937      C1938   1.407       .  A
C1937      H1942   1.083       .  S
C1938      C1939   1.408       .  A
C1939      C1940   1.402       .  A
C1939      H1943   1.083       .  S
C1940      H1944   1.083       .  S
C1945      C1946   1.405       .  A
C1945      C1950   1.404       .  A
C1945      H1955   1.083       .  S
C1946      C1951   1.483       .  S
C1946      C1947   1.403       .  A
C1947      C1948   1.398       .  A
C1947      H1952   1.083       .  S
C1948      C1949   1.408       .  A
C1948      H1953   1.083       .  S
C1949      C1950   1.408       .  A
C1950      H1954   1.083       .  S
C1951      C1956   1.405       .  A
C1951      C1960   1.403       .  A
C1956      C1957   1.404       .  A
C1956      H1961   1.083       .  S
C1957      C1958   1.408       .  A
C1957      H1962   1.083       .  S
C1958      C1959   1.407       .  A
C1959      C1960   1.398       .  A
C1959      H1963   1.083       .  S
C1960      H1964   1.083       .  S
C1965      C1966   1.404       .  A
C1965      C1970   1.401       .  A
C1965      H1975   1.083       .  S
C1966      C1971   1.476       .  S
C1966      C1967   1.401       .  A
C1967      C1968   1.395       .  A
C1967      H1972   1.084       .  S
C1968      C1969   1.407       .  A
C1968      H1973   1.083       .  S
C1969      C1970   1.406       .  A
C1970      H1974   1.083       .  S
C1971      C1976   1.402       .  A
C1971      C1980   1.403       .  A
C1976      C1977   1.399       .  A
C1976      H1981   1.084       .  S
C1977      C1978   1.407       .  A
C1977      H1982   1.082       .  S
C1978      C1979   1.406       .  A
C1979      C1980   1.397       .  A
C1979      H1983   1.083       .  S
C1980      H1984   1.083       .  S
C1985      C1986   1.404       .  A
C1985      C1990   1.400       .  A
C1985      H1995   1.083       .  S
C1986      C1991   1.481       .  S
C1986      C1987   1.404       .  A
C1987      C1988   1.398       .  A
C1987      H1992   1.083       .  S
C1988      C1989   1.406       .  A
C1988      H1993   1.083       .  S
C1989      C1990   1.407       .  A
C1990      H1994   1.083       .  S
C1991      C1996   1.403       .  A
C1991      C2000   1.404       .  A
C1996      C1997   1.400       .  A
C1996      H2001   1.083       .  S
C1997      C1998   1.408       .  A
C1997      H2002   1.083       .  S
C1998      C1999   1.406       .  A
C1999      C2000   1.398       .  A
C1999      H2003   1.083       .  S
C2000      H2004   1.083       .  S
C2005      C2006   1.402       .  A
C2005      C2010   1.397       .  A
C2005      H2015   1.083       .  S
C2006      C2011   1.481       .  S
C2006      C2007   1.404       .  A
C2007      C2008   1.402       .  A
C2007      H2012   1.083       .  S
C2008      C2009   1.408       .  A
C2008      H2013   1.083       .  S
C2009      C2010   1.407       .  A
C2010      H2014   1.083       .  S
C2011      C2016   1.403       .  A
C2011      C2020   1.404       .  A
C2016      C2017   1.397       .  A
C2016      H2021   1.083       .  S
C2017      C2018   1.405       .  A
C2017      H2022   1.083       .  S
C2018      C2019   1.407       .  A
C2019      C2020   1.402       .  A
C2019      H2023   1.083       .  S
C2020      H2024   1.083       .  S
C2025      C2026   1.406       .  A
C2025      C2030   1.402       .  A
C2025      H2035   1.083       .  S
C2026      C2031   1.483       .  S
C2026      C2027   1.403       .  A
C2027      C2028   1.396       .  A
C2027      H2032   1.083       .  S
C2028      C2029   1.405       .  A
C2028      H2033   1.083       .  S
C2029      C2030   1.405       .  A
C2030      H2034   1.083       .  S
C2031      C2036   1.405       .  A
C2031      C2040   1.404       .  A
C2036      C2037   1.401       .  A
C2036      H2041   1.083       .  S
C2037      C2038   1.408       .  A
C2037      H2042   1.083       .  S
C2038      C2039   1.406       .  A
C2039      C2040   1.397       .  A
C2039      H2043   1.083       .  S
C2040      H2044   1.083       .  S
C2045      C2046   1.405       .  A
C2045      C2050   1.400       .  A
C2045      H2055   1.083       .  S
C2046      C2051   1.482       .  S
C2046      C2047   1.403   1_545  A
C2047      C2048   1.398       .  A
C2047      H2052   1.083   1_554  S
C2048      C2049   1.406   1_565  A
C2048      H2053   1.083   1_554  S
C2049      C2050   1.407       .  A
C2050      H2054   1.083       .  S
C2051      C2056   1.404   1_554  A
C2051      C2060   1.404   1_545  A
C2056      C2057   1.399       .  A
C2056      H2061   1.083       .  S
C2057      C2058   1.406   1_546  A
C2057      H2062   1.083       .  S
C2058      C2059   1.407       .  A
C2059      C2060   1.399       .  A
C2059      H2063   1.083       .  S
C2060      H2064   1.083       .  S
C2065      C2066   1.403   1_554  A
C2065      C2070   1.395       .  A
C2065      H2075   1.083   1_455  S
C2066      C2071   1.477       .  S
C2066      C2067   1.404       .  A
C2067      C2068   1.398       .  A
C2067      H2072   1.083       .  S
C2068      C2069   1.405       .  A
C2068      H2073   1.083       .  S
C2069      C2070   1.403   1_556  A
C2070      H2074   1.083   1_455  S
C2071      C2076   1.404   1_556  A
C2071      C2080   1.403   1_455  A
C2076      C2077   1.396       .  A
C2076      H2081   1.083       .  S
C2077      C2078   1.405       .  A
C2077      H2082   1.083       .  S
C2078      C2079   1.406   1_454  A
C2079      C2080   1.396       .  A
C2079      H2083   1.083       .  S
C2080      H2084   1.083       .  S
C2085      C2086   1.406   1_655  A
C2085      C2090   1.400   1_565  A
C2085      H2095   1.083   1_565  S
C2086      C2091   1.482       .  S
C2086      C2087   1.403       .  A
C2087      C2088   1.396       .  A
C2087      H2092   1.083       .  S
C2088      C2089   1.407       .  A
C2088      H2093   1.083       .  S
C2089      C2090   1.405   1_465  A
C2090      H2094   1.083       .  S
C2091      C2096   1.404   1_455  A
C2091      C2100   1.404       .  A
C2096      C2097   1.399       .  A
C2096      H2101   1.083       .  S
C2097      C2098   1.407   1_655  A
C2097      H2102   1.083       .  S
C2098      C2099   1.405       .  A
C2099      C2100   1.397       .  A
C2099      H2103   1.083   1_565  S
C2100      H2104   1.083   1_565  S
C2105      C2106   1.404   1_455  A
C2105      C2110   1.399       .  A
C2105      H2115   1.083       .  S
C2106      C2111   1.483       .  S
C2106      C2107   1.405   1_556  A
C2107      C2108   1.398       .  A
C2107      H2112   1.083       .  S
C2108      C2109   1.405   1_554  A
C2108      H2113   1.083       .  S
C2109      C2110   1.407   1_655  A
C2110      H2114   1.083       .  S
C2111      C2116   1.405       .  A
C2111      C2120   1.404   1_656  A
C2116      C2117   1.400       .  A
C2116      H2121   1.083       .  S
C2117      C2118   1.406   1_655  A
C2117      H2122   1.083       .  S
C2118      C2119   1.405   1_556  A
C2119      C2120   1.397       .  A
C2119      H2123   1.083       .  S
C2120      H2124   1.083       .  S
C2125      C2126   1.403   1_565  A
C2125      C2130   1.398       .  A
C2125      H2135   1.083       .  S
C2126      C2131   1.478       .  S
C2126      C2127   1.403   1_554  A
C2127      C2128   1.396       .  A
C2127      H2132   1.083       .  S
C2128      C2129   1.406   1_556  A
C2128      H2133   1.083       .  S
C2129      C2130   1.407   1_545  A
C2130      H2134   1.083       .  S
C2131      C2136   1.403   1_544  A
C2131      C2140   1.404       .  A
C2136      C2137   1.398       .  A
C2136      H2141   1.083       .  S
C2137      C2138   1.406   1_566  A
C2137      H2142   1.083       .  S
C2138      C2139   1.405       .  A
C2139      C2140   1.398       .  A
C2139      H2143   1.083       .  S
C2140      H2144   1.083       .  S
C2145      C2146   1.406   1_545  A
C2145      C2150   1.400       .  A
C2145      H2155   1.083       .  S
C2146      C2151   1.481       .  S
C2146      C2147   1.403   1_455  A
C2147      C2148   1.396       .  A
C2147      H2152   1.083       .  S
C2148      C2149   1.406   1_655  A
C2148      H2153   1.083       .  S
C2149      C2150   1.405   1_565  A
C2150      H2154   1.083       .  S
C2151      C2156   1.403       .  A
C2151      C2160   1.404   1_465  A
C2156      C2157   1.398       .  A
C2156      H2161   1.083       .  S
C2157      C2158   1.407   1_455  A
C2157      H2162   1.083       .  S
C2158      C2159   1.406   1_565  A
C2159      C2160   1.398       .  A
C2159      H2163   1.083       .  S
C2160      H2164   1.083       .  S
C2165      C2166   1.405   1_455  A
C2165      C2170   1.397       .  A
C2165      H2175   1.083       .  S
C2166      C2171   1.480       .  S
C2166      C2167   1.404       .  A
C2167      C2168   1.397       .  A
C2167      H2172   1.083       .  S
C2168      C2169   1.405       .  A
C2168      H2173   1.083       .  S
C2169      C2170   1.404   1_655  A
C2170      H2174   1.083       .  S
C2171      C2176   1.404       .  A
C2171      C2180   1.404   1_655  A
C2176      C2177   1.397       .  A
C2176      H2181   1.083       .  S
C2177      C2178   1.407       .  A
C2177      H2182   1.083       .  S
C2178      C2179   1.406   1_655  A
C2179      C2180   1.397       .  A
C2179      H2183   1.083       .  S
C2180      H2184   1.083       .  S
C2185      C2186   1.404       .  A
C2185      C2190   1.398       .  A
C2185      H2195   1.083       .  S
C2186      C2191   1.479       .  S
C2186      C2187   1.403       .  A
C2187      C2188   1.399       .  A
C2187      H2192   1.083       .  S
C2188      C2189   1.407       .  A
C2188      H2193   1.083       .  S
C2189      C2190   1.406       .  A
C2190      H2194   1.083       .  S
C2191      C2196   1.403       .  A
C2191      C2200   1.404       .  A
C2196      C2197   1.397       .  A
C2196      H2201   1.083       .  S
C2197      C2198   1.406       .  A
C2197      H2202   1.083       .  S
C2198      C2199   1.407       .  A
C2199      C2200   1.399       .  A
C2199      H2203   1.083       .  S
C2200      H2204   1.083       .  S
C2205      C2206   1.405       .  A
C2205      C2210   1.401       .  A
C2205      H2215   1.083       .  S
C2206      C2211   1.483       .  S
C2206      C2207   1.403   1_655  A
C2207      C2208   1.397       .  A
C2207      H2212   1.083       .  S
C2208      C2209   1.406   1_455  A
C2208      H2213   1.083       .  S
C2209      C2210   1.407       .  A
C2210      H2214   1.083       .  S
C2211      C2216   1.404       .  A
C2211      C2220   1.404   1_655  A
C2216      C2217   1.401       .  A
C2216      H2221   1.083       .  S
C2217      C2218   1.407       .  A
C2217      H2222   1.083       .  S
C2218      C2219   1.406   1_655  A
C2219      C2220   1.398       .  A
C2219      H2223   1.083       .  S
C2220      H2224   1.083       .  S
C2225      C2226   1.406       .  A
C2225      C2230   1.402       .  A
C2225      H2235   1.083       .  S
C2226      C2231   1.486       .  S
C2226      C2227   1.404       .  A
C2227      C2228   1.397       .  A
C2227      H2232   1.083       .  S
C2228      C2229   1.406       .  A
C2228      H2233   1.083       .  S
C2229      C2230   1.408       .  A
C2230      H2234   1.083       .  S
C2231      C2236   1.406       .  A
C2231      C2240   1.405       .  A
C2236      C2237   1.402       .  A
C2236      H2241   1.083       .  S
C2237      C2238   1.407       .  A
C2237      H2242   1.083       .  S
C2238      C2239   1.405       .  A
C2239      C2240   1.398       .  A
C2239      H2243   1.083       .  S
C2240      H2244   1.083       .  S
C2245      C2246   1.404       .  A
C2245      C2250   1.399       .  A
C2245      H2255   1.083       .  S
C2246      C2251   1.480       .  S
C2246      C2247   1.403   1_655  A
C2247      C2248   1.397       .  A
C2247      H2252   1.083       .  S
C2248      C2249   1.406   1_455  A
C2248      H2253   1.083       .  S
C2249      C2250   1.407       .  A
C2250      H2254   1.083       .  S
C2251      C2256   1.404   1_655  A
C2251      C2260   1.404       .  A
C2256      C2257   1.397       .  A
C2256      H2261   1.083       .  S
C2257      C2258   1.406   1_455  A
C2257      H2262   1.083       .  S
C2258      C2259   1.406       .  A
C2259      C2260   1.398       .  A
C2259      H2263   1.083       .  S
C2260      H2264   1.083       .  S
C2265      C2266   1.406   1_455  A
C2265      C2270   1.402       .  A
C2265      H2275   1.083       .  S
C2266      C2271   1.483       .  S
C2266      C2267   1.403       .  A
C2267      C2268   1.397       .  A
C2267      H2272   1.083       .  S
C2268      C2269   1.407       .  A
C2268      H2273   1.083       .  S
C2269      C2270   1.407   1_655  A
C2270      H2274   1.083       .  S
C2271      C2276   1.404   1_655  A
C2271      C2280   1.405       .  A
C2276      C2277   1.400       .  A
C2276      H2281   1.083       .  S
C2277      C2278   1.406   1_455  A
C2277      H2282   1.083       .  S
C2278      C2279   1.405       .  A
C2279      C2280   1.399       .  A
C2279      H2283   1.083       .  S
C2280      H2284   1.083       .  S
C2285      C2286   1.407       .  A
C2285      C2290   1.399       .  A
C2285      H2295   1.083       .  S
C2286      C2291   1.487       .  S
C2286      C2287   1.406       .  A
C2287      C2288   1.396       .  A
C2287      H2292   1.083       .  S
C2288      C2289   1.405       .  A
C2288      H2293   1.083       .  S
C2289      C2290   1.406       .  A
C2290      H2294   1.083       .  S
C2291      C2296   1.406       .  A
C2291      C2300   1.406       .  A
C2296      C2297   1.398       .  A
C2296      H2301   1.083       .  S
C2297      C2298   1.405       .  A
C2297      H2302   1.083       .  S
C2298      C2299   1.405       .  A
C2299      C2300   1.397       .  A
C2299      H2303   1.083       .  S
C2300      H2304   1.083       .  S
C2305      C2306   1.408       .  A
C2305      C2310   1.400       .  A
C2305      H2315   1.082       .  S
C2306      C2311   1.496       .  S
C2306      C2307   1.409   1_565  A
C2307      C2308   1.399       .  A
C2307      H2312   1.082       .  S
C2308      C2309   1.404   1_545  A
C2308      H2313   1.083       .  S
C2309      C2310   1.406       .  A
C2310      H2314   1.083       .  S
C2311      C2316   1.409       .  A
C2311      C2320   1.408   1_565  A
C2316      C2317   1.401       .  A
C2316      H2321   1.082       .  S
C2317      C2318   1.406       .  A
C2317      H2322   1.083       .  S
C2318      C2319   1.405   1_565  A
C2319      C2320   1.399       .  A
C2319      H2323   1.083       .  S
C2320      H2324   1.082       .  S
C2325      C2326   1.407   1_545  A
C2325      C2330   1.398       .  A
C2325      H2335   1.082       .  S
C2326      C2331   1.492       .  S
C2326      C2327   1.408       .  A
C2327      C2328   1.398       .  A
C2327      H2332   1.082       .  S
C2328      C2329   1.405       .  A
C2328      H2333   1.083       .  S
C2329      C2330   1.405   1_565  A
C2330      H2334   1.083       .  S
C2331      C2336   1.408   1_565  A
C2331      C2340   1.408       .  A
C2336      C2337   1.398       .  A
C2336      H2341   1.082       .  S
C2337      C2338   1.405   1_545  A
C2337      H2342   1.083       .  S
C2338      C2339   1.404       .  A
C2339      C2340   1.399       .  A
C2339      H2343   1.083       .  S
C2340      H2344   1.082       .  S
C2345      C2346   1.408       .  A
C2345      C2350   1.399       .  A
C2345      H2355   1.082       .  S
C2346      C2351   1.490       .  S
C2346      C2347   1.406       .  A
C2347      C2348   1.396       .  A
C2347      H2352   1.082       .  S
C2348      C2349   1.405       .  A
C2348      H2353   1.083       .  S
C2349      C2350   1.405       .  A
C2350      H2354   1.083       .  S
C2351      C2356   1.407       .  A
C2351      C2360   1.408       .  A
C2356      C2357   1.397       .  A
C2356      H2361   1.082       .  S
C2357      C2358   1.406       .  A
C2357      H2362   1.083       .  S
C2358      C2359   1.404       .  A
C2359      C2360   1.398       .  A
C2359      H2363   1.083       .  S
C2360      H2364   1.082       .  S
C2365      C2366   1.408   1_545  A
C2365      C2370   1.400       .  A
C2365      H2375   1.082       .  S
C2366      C2371   1.494       .  S
C2366      C2367   1.408       .  A
C2367      C2368   1.399       .  A
C2367      H2372   1.082       .  S
C2368      C2369   1.406       .  A
C2368      H2373   1.083       .  S
C2369      C2370   1.406   1_565  A
C2370      H2374   1.083       .  S
C2371      C2376   1.408   1_565  A
C2371      C2380   1.408       .  A
C2376      C2377   1.400       .  A
C2376      H2381   1.082       .  S
C2377      C2378   1.406   1_545  A
C2377      H2382   1.083       .  S
C2378      C2379   1.404       .  A
C2379      C2380   1.399       .  A
C2379      H2383   1.083       .  S
C2380      H2384   1.082       .  S
C2385      C2386   1.408       .  A
C2385      C2390   1.399       .  A
C2385      H2395   1.083       .  S
C2386      C2391   1.489   1_545  S
C2386      C2387   1.406   1_545  A
C2387      C2388   1.398       .  A
C2387      H2392   1.083       .  S
C2388      C2389   1.406   1_565  A
C2388      H2393   1.083       .  S
C2389      C2390   1.403       .  A
C2390      H2394   1.083       .  S
C2391      C2396   1.405   1_565  A
C2391      C2400   1.407       .  A
C2396      C2397   1.397       .  A
C2396      H2401   1.083       .  S
C2397      C2398   1.406   1_545  A
C2397      H2402   1.083       .  S
C2398      C2399   1.406       .  A
C2399      C2400   1.400       .  A
C2399      H2403   1.083       .  S
C2400      H2404   1.083       .  S
C2405      C2406   1.406   1_554  A
C2405      C2410   1.395       .  A
C2405      H2415   1.083       .  S
C2406      C2411   1.487       .  S
C2406      C2407   1.406       .  A
C2407      C2408   1.399       .  A
C2407      H2412   1.082       .  S
C2408      C2409   1.406       .  A
C2408      H2413   1.084       .  S
C2409      C2410   1.403   1_556  A
C2410      H2414   1.082       .  S
C2411      C2416   1.407       .  A
C2411      C2420   1.406   1_556  A
C2416      C2417   1.399       .  A
C2416      H2421   1.083       .  S
C2417      C2418   1.406       .  A
C2417      H2422   1.082       .  S
C2418      C2419   1.405   1_556  A
C2419      C2420   1.395       .  A
C2419      H2423   1.083       .  S
C2420      H2424   1.082       .  S
C2425      C2426   1.408   1_554  A
C2425      C2430   1.400       .  A
C2425      H2435   1.083       .  S
C2426      C2431   1.489       .  S
C2426      C2427   1.406       .  A
C2427      C2428   1.396       .  A
C2427      H2432   1.083       .  S
C2428      C2429   1.405       .  A
C2428      H2433   1.083       .  S
C2429      C2430   1.405   1_556  A
C2430      H2434   1.083       .  S
C2431      C2436   1.406   1_556  A
C2431      C2440   1.408       .  A
C2436      C2437   1.397       .  A
C2436      H2441   1.083       .  S
C2437      C2438   1.406   1_554  A
C2437      H2442   1.083       .  S
C2438      C2439   1.404       .  A
C2439      C2440   1.398       .  A
C2439      H2443   1.083       .  S
C2440      H2444   1.082       .  S
C2445      C2446   1.405       .  A
C2445      C2450   1.394       .  A
C2445      H2455   1.083       .  S
C2446      C2451   1.486       .  S
C2446      C2447   1.408       .  A
C2447      C2448   1.398       .  A
C2447      H2452   1.082       .  S
C2448      C2449   1.405       .  A
C2448      H2453   1.083       .  S
C2449      C2450   1.405       .  A
C2450      H2454   1.083       .  S
C2451      C2456   1.408       .  A
C2451      C2460   1.406       .  A
C2456      C2457   1.397       .  A
C2456      H2461   1.082       .  S
C2457      C2458   1.403       .  A
C2457      H2462   1.083       .  S
C2458      C2459   1.405       .  A
C2459      C2460   1.396       .  A
C2459      H2463   1.083       .  S
C2460      H2464   1.083       .  S
C2465      C2466   1.407       .  A
C2465      C2470   1.398       .  A
C2465      H2475   1.082       .  S
C2466      C2471   1.489       .  S
C2466      C2467   1.407       .  A
C2467      C2468   1.398       .  A
C2467      H2472   1.082       .  S
C2468      C2469   1.404       .  A
C2468      H2473   1.083       .  S
C2469      C2470   1.405       .  A
C2470      H2474   1.083       .  S
C2471      C2476   1.407       .  A
C2471      C2480   1.406       .  A
C2476      C2477   1.399       .  A
C2476      H2481   1.082       .  S
C2477      C2478   1.406       .  A
C2477      H2482   1.083       .  S
C2478      C2479   1.406       .  A
C2479      C2480   1.398       .  A
C2479      H2483   1.083       .  S
C2480      H2484   1.083       .  S
C2485      C2486   1.408       .  A
C2485      C2490   1.398       .  A
C2485      H2495   1.085       .  S
C2486      C2491   1.491       .  S
C2486      C2487   1.406   1_556  A
C2487      C2488   1.397       .  A
C2487      H2492   1.079       .  S
C2488      C2489   1.407   1_554  A
C2488      H2493   1.086       .  S
C2489      C2490   1.405       .  A
C2490      H2494   1.079       .  S
C2491      C2496   1.406       .  A
C2491      C2500   1.409   1_556  A
C2496      C2497   1.394       .  A
C2496      H2501   1.080       .  S
C2497      C2498   1.403       .  A
C2497      H2502   1.086       .  S
C2498      C2499   1.405   1_556  A
C2499      C2500   1.401       .  A
C2499      H2503   1.081       .  S
C2500      H2504   1.084       .  S
C2505      C2506   1.407       .  A
C2505      C2510   1.396       .  A
C2505      H2515   1.082       .  S
C2506      C2511   1.491       .  S
C2506      C2507   1.408   1_554  A
C2507      C2508   1.399       .  A
C2507      H2512   1.082       .  S
C2508      C2509   1.405       .  A
C2508      H2513   1.083       .  S
C2509      C2510   1.403   1_556  A
C2510      H2514   1.083       .  S
C2511      C2516   1.407       .  A
C2511      C2520   1.407   1_554  A
C2516      C2517   1.396       .  A
C2516      H2521   1.082       .  S
C2517      C2518   1.405       .  A
C2517      H2522   1.083       .  S
C2518      C2519   1.407   1_554  A
C2519      C2520   1.399       .  A
C2519      H2523   1.083       .  S
C2520      H2524   1.082       .  S
