geometry optimzed in LAMMPS
_audit_creation_date              2020-11-30 
_audit_creation_method            'lammps2cif' 
_symmetry_space_group_name_H-M    'P1' 
_symmetry_Int_Tables_number       1 
_symmetry_cell_setting            triclinic 
loop_ 
_symmetry_equiv_pos_as_xyz 
  x,y,z 
_cell_length_a                    42.20595054 
_cell_length_b                    42.226656686354055 
_cell_length_c                    42.135039329018 
_cell_angle_alpha                 90.05007738768015 
_cell_angle_beta                  90.21347599266282 
_cell_angle_gamma                 89.96901079902182 
loop_ 
_atom_site_label 
_atom_site_type_symbol 
_atom_site_fract_x 
_atom_site_fract_y 
_atom_site_fract_z 
_atom_site_charge 
O1          O  0.78396316  0.70111305  0.83413796    -0.88500
C2          C  0.79689724  0.72660139  0.65105576     1.11500
O3          O  0.74308179  0.72599984  0.77830991    -1.36300
O4          O  0.84351378  0.75100325  0.71550541    -0.90000
O5          O  0.73521089  0.71215733  0.85032697    -0.90700
O6          O  0.75124068  0.79073575  0.81873751    -0.79500
O7          O  0.81174935  0.72229892  0.77079987    -1.01600
C8          C  0.77049931  0.83586382  0.73841338     1.21600
O9          O  0.71545410  0.77823174  0.74867551    -1.36500
Mn10       Mn  0.72457084  0.73064968  0.72998300     1.82100
O11         O  0.77740691  0.82155351  0.76379276    -0.78600
O12         O  0.82340761  0.79730548  0.70045370    -0.88000
C13         C  0.71662954  0.76133094  0.66635437     1.12700
C14         C  0.84677213  0.78013230  0.70886329     1.07400
O15         O  0.67714044  0.71214951  0.73520147    -0.79500
O16         O  0.77135771  0.75239079  0.72541284    -1.33200
O17         O  0.67429558  0.73547760  0.77954719    -0.98700
C18         C  0.68896177  0.85412667  0.76937657     1.06100
Mn19       Mn  0.77585990  0.78672351  0.68932417     1.48600
O20         O  0.68528870  0.83141071  0.78876494    -0.87900
Mn21       Mn  0.70631360  0.72140046  0.81171479     1.49600
O22         O  0.74889750  0.65429514  0.79288365    -0.91800
C23         C  0.82493913  0.74285732  0.78611158     1.19300
C24         C  0.71938794  0.64989676  0.79620453     1.11300
Mn25       Mn  0.76195972  0.77360068  0.77173409     1.81000
O26         O  0.73002573  0.78222153  0.68105957    -0.96900
Mn27       Mn  0.77937576  0.69206950  0.78463415     1.49300
C28         C  0.76394223  0.70620224  0.85625082     1.07900
Mn29       Mn  0.71073825  0.81193695  0.71162263     1.49900
C30         C  0.63979646  0.79529644  0.71931011     1.10800
O31         O  0.70663146  0.76809075  0.81753241    -1.02700
O32         O  0.78950212  0.75543944  0.65418942    -0.92400
C33         C  0.72570020  0.78374759  0.83260414     1.22000
O34         O  0.75734685  0.82020955  0.71752304    -1.03100
O35         O  0.80207006  0.70877197  0.67495033    -0.90500
O36         O  0.66294140  0.80083475  0.70068644    -0.90100
O37         O  0.70034750  0.67258084  0.80203501    -0.90200
Mn38       Mn  0.80788675  0.71827335  0.72437385     1.47900
O39         O  0.70955087  0.73671927  0.68162783    -0.78600
C40         C  0.66093005  0.71927267  0.75920801     1.15100
O41         O  0.80910163  0.76771664  0.79120401    -0.77400
O42         O  0.73503743  0.68300814  0.71496508    -0.77000
Mn43       Mn  0.67897946  0.78254347  0.78216454     1.51100
O44         O  0.69647144  0.84986165  0.74056661    -0.89300
O45         O  0.77891243  0.68535420  0.73872110    -0.96900
O46         O  0.64406298  0.79072862  0.74862799    -0.91900
C47         C  0.76040477  0.66954046  0.72336716     1.12900
O48         O  0.83278629  0.68847616  0.21230307    -0.88500
C49         C  0.64936807  0.71290206  0.20820527     1.11500
O50         O  0.77946306  0.71444154  0.25536102    -1.36300
O51         O  0.70797768  0.73043944  0.15658401    -0.90000
O52         O  0.85151741  0.69989936  0.26041836    -0.90700
O53         O  0.81715823  0.77713720  0.23871073    -0.79500
O54         O  0.76668123  0.70548704  0.18758455    -1.01600
C55         C  0.73922902  0.82218721  0.22141110     1.21600
O56         O  0.75202086  0.76899714  0.27943236    -1.36500
Mn57       Mn  0.73255955  0.72173733  0.27556583     1.82100
O58         O  0.76334785  0.80651214  0.21382454    -0.78600
O59         O  0.70085921  0.77986233  0.17350343    -0.88000
C60         C  0.66926422  0.75294678  0.28337755     1.12700
C61         C  0.70537834  0.75996127  0.15122242     1.07400
O62         O  0.74068464  0.70761353  0.32344027    -0.79500
O63         O  0.72466334  0.73909780  0.22777393    -1.33200
O64         O  0.78534559  0.72959909  0.32250547    -0.98700
C65         C  0.77553508  0.84593899  0.29786454     1.06100
Mn66       Mn  0.69014806  0.77441466  0.22187307     1.48600
O67         O  0.79537529  0.82367157  0.30336985    -0.87900
Mn68       Mn  0.81469001  0.71227528  0.29106951     1.49600
O69         O  0.79655470  0.64235614  0.25394566    -0.91800
C70         C  0.77978305  0.72549637  0.17106171     1.19300
C71         C  0.80034220  0.63924707  0.28362528     1.11300
Mn72       Mn  0.77120799  0.76005942  0.23248840     1.81000
O73         O  0.68262293  0.77331408  0.26780652    -0.96900
Mn74       Mn  0.78443482  0.67775780  0.22187999     1.49300
C75         C  0.85579112  0.69469766  0.23110187     1.07900
Mn76       Mn  0.71559120  0.80333932  0.28192190     1.49900
C77         C  0.72652274  0.79238628  0.35390468     1.10800
O78         O  0.82185487  0.75838448  0.28540567    -1.02700
O79         O  0.65437799  0.74234195  0.21138326    -0.92400
C80         C  0.83414725  0.77137040  0.26249327     1.22000
O81         O  0.71895938  0.80798836  0.23615843    -1.03100
O82         O  0.67190252  0.69299262  0.20545916    -0.90500
O83         O  0.70779323  0.79619698  0.33047507    -0.90100
O84         O  0.80494328  0.66337681  0.30159608    -0.90200
Mn85       Mn  0.71996908  0.70143183  0.19517659     1.47900
O86         O  0.68558640  0.72957941  0.29220067    -0.78600
C87         C  0.76534928  0.71585238  0.33798802     1.15100
O88         O  0.78701718  0.75103634  0.18468289    -0.77400
O89         O  0.71689948  0.67432325  0.27092838    -0.77000
Mn90       Mn  0.78815020  0.77502963  0.31399648     1.51100
O91         O  0.74662910  0.84053093  0.29161034    -0.89300
O92         O  0.73823970  0.67069060  0.22588318    -0.96900
O93         O  0.75600974  0.78703190  0.35020234    -0.91900
C94         C  0.72486340  0.65745176  0.24773998     1.12900
O95         O  0.67938722  0.20271759  0.84912917    -0.88500
C96         C  0.70187086  0.21204249  0.66632244     1.11500
O97         O  0.70236633  0.25002972  0.79917356    -1.36300
O98         O  0.71782599  0.15639608  0.72084906    -0.90000
O99         O  0.68764555  0.24980026  0.87142108    -0.90700
O100        O  0.76541551  0.23169718  0.83766225    -0.79500
O101        O  0.69379645  0.18267085  0.78165567    -1.01600
C102        C  0.81000790  0.21836078  0.75701843     1.21600
O103        O  0.75615862  0.27607700  0.77403533    -1.36500
Mn104      Mn  0.70888515  0.27277275  0.75314780     1.82100
O105        O  0.79523318  0.21024598  0.78161928    -0.78600
O106        O  0.76776589  0.17274978  0.71912904    -0.88000
C107        C  0.74164103  0.28419246  0.69123001     1.12700
C108        C  0.74720620  0.15077796  0.72126185     1.07400
O109        O  0.69528410  0.31968047  0.76395287    -0.79500
O110        O  0.72689065  0.22573745  0.74358729    -1.33200
O111        O  0.71671859  0.31769343  0.80962160    -0.98700
C112        C  0.83315638  0.29175685  0.79885707     1.06100
Mn113      Mn  0.76220368  0.22183299  0.70961871     1.48600
O114        O  0.81103587  0.29579705  0.81923302    -0.87900
Mn115      Mn  0.69980703  0.28336393  0.83655423     1.49600
O116        O  0.63143314  0.24628889  0.81787458    -0.91800
C117        C  0.71421289  0.16646584  0.79422163     1.19300
C118        C  0.62777325  0.27594749  0.82111610     1.11300
Mn119      Mn  0.74817548  0.22829357  0.79054807     1.81000
O120        O  0.76011404  0.26784837  0.70583028    -0.96900
Mn121      Mn  0.66699034  0.21510186  0.80250836     1.49300
C122        C  0.68454413  0.21985041  0.87345880     1.07900
Mn123      Mn  0.79011820  0.28121470  0.73847644     1.49900
C124        C  0.77740512  0.35213466  0.75486145     1.10800
O125        O  0.74573993  0.27739093  0.84369697    -1.02700
O126        O  0.73120829  0.21354777  0.67222964    -0.92400
C127        C  0.75955223  0.25481474  0.85555575     1.22000
O128        O  0.79565411  0.23523629  0.73874100    -1.03100
O129        O  0.68161924  0.20790006  0.68844117    -0.90500
O130        O  0.78070486  0.33029480  0.73422586    -0.90100
O131        O  0.65141609  0.29414207  0.82635759    -0.90200
Mn132      Mn  0.68978119  0.19331531  0.73608269     1.47900
O133        O  0.71672719  0.29176358  0.70587101    -0.78600
C134        C  0.70299840  0.33341746  0.78934616     1.15100
O135        O  0.73895173  0.18044389  0.80330115    -0.77400
O136        O  0.66036807  0.26896024  0.73717906    -0.77000
Mn137      Mn  0.76235498  0.30802788  0.81257155     1.51100
O138        O  0.82729125  0.28934628  0.76952693    -0.89300
O139        O  0.65802857  0.22255228  0.75617246    -0.96900
O140        O  0.77472768  0.34633836  0.78424400    -0.91900
C141        C  0.64389674  0.24509062  0.74424822     1.12900
O142        O  0.19036653  0.31934309  0.83968729    -0.88500
C143        C  0.16700786  0.28649624  0.66251558     1.11500
O144        O  0.22992240  0.29048117  0.78598917    -1.36300
O145        O  0.12640704  0.26484464  0.72857200    -0.90000
O146        O  0.23812612  0.30528407  0.85718647    -0.90700
O147        O  0.22064519  0.22667951  0.82842020    -0.79500
O148        O  0.16108059  0.29534793  0.78030870    -1.01600
C149        C  0.20255603  0.17926165  0.74894438     1.21600
O150        O  0.25587990  0.23803977  0.75724737    -1.36500
Mn151      Mn  0.24710516  0.28468126  0.73758211     1.82100
O152        O  0.19525192  0.19370519  0.77420935    -0.78600
O153        O  0.14703394  0.21791006  0.71635963    -0.88000
C154        C  0.25154264  0.25340247  0.67191667     1.12700
C155        C  0.12370705  0.23511097  0.72487968     1.07400
O156        O  0.29521393  0.30192421  0.74354057    -0.79500
O157        O  0.19986747  0.26352565  0.73442528    -1.33200
O158        O  0.29867232  0.27934278  0.78831908    -0.98700
C159        C  0.27930428  0.16285031  0.77900608     1.06100
Mn160      Mn  0.19327043  0.22806290  0.70013973     1.48600
O161        O  0.28291955  0.18515887  0.79908371    -0.87900
Mn162      Mn  0.26761003  0.29448191  0.81932912     1.49600
O163        O  0.22735305  0.36244176  0.79766004    -0.91800
C164        C  0.14824065  0.27465467  0.79591142     1.19300
C165        C  0.25674922  0.36613245  0.80335502     1.11300
Mn166      Mn  0.21019940  0.24282008  0.78081831     1.81000
O167        O  0.23874869  0.23226876  0.68714299    -0.96900
Mn168      Mn  0.19466352  0.32580114  0.79104663     1.49300
C169        C  0.20955178  0.31293008  0.86206065     1.07900
Mn170      Mn  0.25970245  0.20472299  0.71985314     1.49900
C171        C  0.32943890  0.21997523  0.72751467     1.10800
O172        O  0.26522448  0.24871557  0.82682923    -1.02700
O173        O  0.17563213  0.25816079  0.66631064    -0.92400
C174        C  0.24574723  0.23446409  0.84276569     1.22000
O175        O  0.21409487  0.19578481  0.72789804    -1.03100
O176        O  0.16471657  0.30585469  0.68536897    -0.90500
O177        O  0.30620189  0.21682018  0.70849670    -0.90100
O178        O  0.27498804  0.34290928  0.80978947    -0.90200
Mn179      Mn  0.16283876  0.29775041  0.73423938     1.47900
O180        O  0.26029492  0.27725819  0.68810354    -0.78600
C181        C  0.31192031  0.29413090  0.76740381     1.15100
O182        O  0.16411222  0.24979778  0.80080486    -0.77400
O183        O  0.23662120  0.33184840  0.72071439    -0.77000
Mn184      Mn  0.29220980  0.23364106  0.79147629     1.51100
O185        O  0.27531340  0.16837325  0.74962784    -0.89300
O186        O  0.19323021  0.33090380  0.74503761    -0.96900
O187        O  0.32644008  0.22300019  0.75733429    -0.91900
C188        C  0.21104957  0.34561461  0.72791714     1.12900
O189        O  0.30203481  0.80271269  0.82149706    -0.88500
C190        C  0.26694471  0.80909589  0.64029328     1.11500
O191        O  0.27337440  0.76016657  0.76899953    -1.36300
O192        O  0.25062579  0.85802457  0.70160604    -0.90000
O193        O  0.29073618  0.75488651  0.84028216    -0.90700
O194        O  0.21137796  0.77581884  0.81145322    -0.79500
O195        O  0.28029591  0.82719060  0.75707780    -1.01600
C196        C  0.16258704  0.78946700  0.73350726     1.21600
O197        O  0.21852513  0.73490401  0.74286962    -1.36500
Mn198      Mn  0.26519173  0.74009235  0.72220639     1.82100
O199        O  0.17942675  0.79841544  0.75663394    -0.78600
O200        O  0.20115222  0.84032111  0.69570117    -0.88000
C201        C  0.23289327  0.73311357  0.65940267     1.12700
C202        C  0.22090017  0.86278791  0.70014872     1.07400
O203        O  0.28044389  0.69249224  0.72958765    -0.79500
O204        O  0.24567095  0.78725581  0.71605339    -1.33200
O205        O  0.25852105  0.69207048  0.77459000    -0.98700
C206        C  0.14302180  0.71831169  0.76707331     1.06100
Mn207      Mn  0.20843290  0.79253452  0.68307786     1.48600
O208        O  0.16547110  0.71484341  0.78699805    -0.87900
Mn209      Mn  0.27745629  0.72425396  0.80332981     1.49600
O210        O  0.34574964  0.76107996  0.78162013    -0.91800
C211        C  0.26148364  0.84326055  0.77164688     1.19300
C212        C  0.34826632  0.73130949  0.78597256     1.11300
Mn213      Mn  0.22673609  0.78185591  0.76330825     1.81000
O214        O  0.21235134  0.74710319  0.67411770    -0.96900
Mn215      Mn  0.30954573  0.79421975  0.77216668     1.49300
C216        C  0.29646838  0.78409539  0.84475097     1.07900
Mn217      Mn  0.18405330  0.73017956  0.70691999     1.49900
C218        C  0.19662481  0.65928800  0.71807216     1.10800
O219        O  0.23114464  0.72978605  0.81113457    -1.02700
O220        O  0.23788194  0.80555472  0.64626456    -0.92400
C221        C  0.21841511  0.75103316  0.82643506     1.22000
O222        O  0.17615022  0.77565719  0.71203774    -1.03100
O223        O  0.28785707  0.81171085  0.66212291    -0.90500
O224        O  0.19507132  0.68204942  0.69822314    -0.90100
O225        O  0.32442455  0.71403154  0.79208825    -0.90200
Mn226      Mn  0.28190011  0.82097058  0.71114667     1.47900
O227        O  0.25676539  0.72424600  0.67498860    -0.78600
C228        C  0.27204814  0.67728081  0.75381008     1.15100
O229        O  0.23599379  0.82968491  0.77922433    -0.77400
O230        O  0.31221477  0.74617679  0.70436702    -0.77000
Mn231      Mn  0.21265354  0.70077809  0.77823426     1.51100
O232        O  0.14773804  0.71704063  0.73746990    -0.89300
O233        O  0.31415912  0.79095775  0.72598053    -0.96900
O234        O  0.19856409  0.66434562  0.74772232    -0.91900
C235        C  0.32792947  0.77055233  0.71109153     1.12900
O236        O  0.66595754  0.18048489  0.30789928    -0.88500
C237        C  0.84186549  0.21646661  0.32898138     1.11500
O238        O  0.71861241  0.21116894  0.26848424    -1.36300
O239        O  0.77684428  0.23696354  0.37188763    -0.90000
O240        O  0.64943005  0.19118506  0.25893926    -0.90700
O241        O  0.67516205  0.27316905  0.27998302    -0.79500
O242        O  0.72514174  0.20553150  0.33701077    -1.01600
C243        C  0.75486868  0.32236764  0.29808447     1.21600
O244        O  0.74635935  0.26445712  0.24402723    -1.36500
Mn245      Mn  0.76630798  0.21809791  0.25069364     1.82100
O246        O  0.73060036  0.30633669  0.30558261    -0.78600
O247        O  0.78815027  0.28452987  0.35185099    -0.88000
C248        C  0.83107554  0.24881320  0.24802391     1.12700
C249        C  0.78076056  0.26669500  0.37515038     1.07400
O250        O  0.76012343  0.20188261  0.20149012    -0.79500
O251        O  0.76998849  0.23870813  0.29848126    -1.33200
O252        O  0.71594305  0.22466552  0.20035775    -0.98700
C253        C  0.72643709  0.33916032  0.22490229     1.06100
Mn254      Mn  0.80358148  0.27537155  0.30511162     1.48600
O255        O  0.70515392  0.31780149  0.22300914    -0.87900
Mn256      Mn  0.68608452  0.20654918  0.23042200     1.49600
O257        O  0.70887937  0.13923492  0.26995998    -0.91800
C258        C  0.70912229  0.22509571  0.35079488     1.19300
C259        C  0.70543899  0.13528116  0.24030342     1.11300
Mn260      Mn  0.72336939  0.25823612  0.28948855     1.81000
O261        O  0.81580135  0.26994344  0.26067595    -0.96900
Mn262      Mn  0.71468538  0.17535005  0.30320303     1.49300
C263        C  0.64412396  0.18283189  0.28732909     1.07900
Mn264      Mn  0.78392882  0.29733039  0.24027801     1.49900
C265        C  0.77542641  0.28045231  0.17023455     1.10800
O266        O  0.67606504  0.25232109  0.23439516    -1.02700
O267        O  0.83845953  0.24530564  0.32175316    -0.92400
C268        C  0.66038473  0.26550233  0.25499175     1.22000
O269        O  0.77658528  0.30802091  0.28529096    -1.03100
O270        O  0.81933365  0.19694736  0.33159956    -0.90500
O271        O  0.79433476  0.28210431  0.19384925    -0.90100
O272        O  0.69923839  0.15846243  0.22163216    -0.90200
Mn273      Mn  0.77103809  0.20406434  0.33485879     1.47900
O274        O  0.81519446  0.22554992  0.23779933    -0.78600
C275        C  0.73580869  0.21013043  0.18561153     1.15100
O276        O  0.70381711  0.25045131  0.33592317    -0.77400
O277        O  0.78358499  0.17150740  0.25958986    -0.77000
Mn278      Mn  0.71188357  0.27009799  0.20869309     1.51100
O279        O  0.75553031  0.33280497  0.22204927    -0.89300
O280        O  0.76068469  0.17076797  0.30410216    -0.96900
O281        O  0.74553023  0.28311021  0.17379368    -0.91900
C282        C  0.77744953  0.15702274  0.28493124     1.12900
O283        O  0.21224740  0.70529044  0.16059924    -0.88500
C284        C  0.20206893  0.72177875  0.34330821     1.11500
O285        O  0.25377270  0.72418568  0.21612545    -1.36300
O286        O  0.15432411  0.74182456  0.28427821    -0.90000
O287        O  0.26162413  0.71288627  0.14414210    -0.90700
O288        O  0.24271402  0.78973232  0.17596547    -0.79500
O289        O  0.18482488  0.71771198  0.22567003    -1.01600
C290        C  0.22330264  0.83453777  0.25682722     1.21600
O291        O  0.27907292  0.77703185  0.24658462    -1.36500
Mn292      Mn  0.27162508  0.72889679  0.26450408     1.82100
O293        O  0.21627924  0.81929493  0.23184764    -0.78600
O294        O  0.17014998  0.79167714  0.29042741    -0.88000
C295        C  0.27780315  0.75916147  0.32917689     1.12700
C296        C  0.14832765  0.77116470  0.28646942     1.07400
O297        O  0.31911893  0.71224140  0.25875079    -0.79500
O298        O  0.22465833  0.74883488  0.26924565    -1.33200
O299        O  0.32182188  0.73583393  0.21491026    -0.98700
C300        C  0.29996335  0.85273833  0.22527721     1.06100
Mn301      Mn  0.21742168  0.78414312  0.30409639     1.48600
O302        O  0.30735435  0.83021599  0.20677762    -0.87900
Mn303      Mn  0.29111637  0.72132535  0.18277799     1.49600
O304        O  0.25011956  0.65510155  0.19222038    -0.91800
C305        C  0.16972444  0.73824251  0.21114920     1.19300
C306        C  0.27923132  0.65083381  0.18698629     1.11300
Mn307      Mn  0.23267429  0.77117513  0.22321243     1.81000
O308        O  0.26396827  0.78114327  0.31539987    -0.96900
Mn309      Mn  0.21887692  0.68962080  0.20784898     1.49300
C310        C  0.23215102  0.71139252  0.13869205     1.07900
Mn311      Mn  0.28206514  0.81149760  0.28338718     1.49900
C312        C  0.35457188  0.79639549  0.27690047     1.10800
O313        O  0.28827804  0.76845154  0.17786875    -1.02700
O314        O  0.20379290  0.75143791  0.33845862    -0.92400
C315        C  0.26890346  0.78416636  0.16244336     1.22000
O316        O  0.23596512  0.81895428  0.27791189    -1.03100
O317        O  0.20088487  0.70191373  0.32050856    -0.90500
O318        O  0.33058516  0.80210444  0.29444841    -0.90100
O319        O  0.29962398  0.67283502  0.18848313    -0.90200
Mn320      Mn  0.19131859  0.71137580  0.27231202     1.47900
O321        O  0.28568610  0.73514506  0.31312323    -0.78600
C322        C  0.33527860  0.72013682  0.23502485     1.15100
O323        O  0.18461991  0.76357341  0.20490578    -0.77400
O324        O  0.26374290  0.67992728  0.27823571    -0.77000
Mn325      Mn  0.31637769  0.78208382  0.21389689     1.51100
O326        O  0.29405901  0.84865247  0.25428763    -0.89300
O327        O  0.22006599  0.67775372  0.25394909    -0.96900
O328        O  0.35155797  0.79096963  0.24744292    -0.91900
C329        C  0.24091129  0.66319390  0.26809384     1.12900
C330        C  0.51760052  0.13566341  0.30766136     0.79900
N331        N  0.51266386  0.10972827  0.32626691    -0.78400
C332        C  0.48258666  0.09997296  0.33244539     0.82300
N333        N  0.45789069  0.11709821  0.32144374    -0.78400
C334        C  0.46283053  0.14331436  0.30404050     0.82400
N335        N  0.49248995  0.15265240  0.29722689    -0.80100
C336        C  0.52307129  0.28123897  0.22295043     0.79900
N337        N  0.49536646  0.27335951  0.23906860    -0.78400
C338        C  0.46611501  0.27913520  0.22474955     0.82300
N339        N  0.46543146  0.29247725  0.19557340    -0.78400
C340        C  0.49187949  0.29983372  0.17961406     0.82400
N341        N  0.52014991  0.29434688  0.19349729    -0.80100
C342        C  0.21314418  0.47346430  0.30855871     0.79900
N343        N  0.22977263  0.49931342  0.29683891    -0.78400
C344        C  0.21896348  0.52989446  0.30272460     0.82300
N345        N  0.19171582  0.53396239  0.31921979    -0.78400
C346        C  0.17524521  0.50895069  0.33024311     0.82400
N347        N  0.18618013  0.47933859  0.32519222    -0.80100
C348        C  0.28760458  0.52379427  0.14019683     0.79900
N349        N  0.30104124  0.51618355  0.11191369    -0.78400
C350        C  0.30396992  0.48550780  0.10277318     0.82300
N351        N  0.29397272  0.46256056  0.12258144    -0.78400
C352        C  0.28185181  0.46954879  0.15138149     0.82400
N353        N  0.27893876  0.50024212  0.16039300    -0.80100
C354        C  0.79125055  0.48072886  0.71588278     0.79900
N355        N  0.81754330  0.47744320  0.69796139    -0.78400
C356        C  0.83193426  0.50286233  0.68526194     0.82300
N357        N  0.81935446  0.53190907  0.68973997    -0.78400
C358        C  0.79279646  0.53605215  0.70752330     0.82400
N359        N  0.77866402  0.51018196  0.72105165    -0.80100
C360        C  0.67398388  0.52217639  0.80527340     0.79900
N361        N  0.68436527  0.49296620  0.79563153    -0.78400
C362        C  0.67181462  0.46629942  0.80914158     0.82300
N363        N  0.64980617  0.46933580  0.83237894    -0.78400
C364        C  0.63992547  0.49815480  0.84201610     0.82400
N365        N  0.65213716  0.52436531  0.82863024    -0.80100
C366        C  0.46271553  0.20553137  0.70396350     0.79900
N367        N  0.47106274  0.17774630  0.69024157    -0.78400
C368        C  0.50158579  0.16903783  0.68773273     0.82300
N369        N  0.52448143  0.18871745  0.69778227    -0.78400
C370        C  0.51704708  0.21662660  0.71180689     0.82400
N371        N  0.48597590  0.22503197  0.71556925    -0.80100
C372        C  0.44103873  0.32314540  0.80558223     0.79900
N373        N  0.43773081  0.34406160  0.82988697    -0.78400
C374        C  0.46304129  0.35248466  0.84783640     0.82300
N375        N  0.49199090  0.34075860  0.84106924    -0.78400
C376        C  0.49623354  0.31995710  0.81699864     0.82400
N377        N  0.47043177  0.31049122  0.79935977    -0.80100
N378        N  0.45581101  0.56254349  0.96607358    -0.36900
N379        N  0.54110729  0.55758211  0.94516740    -0.57500
N380        N  0.51222734  0.47867885  0.96354987    -0.36900
N381        N  0.44384876  0.49389684  0.96172842    -0.57500
C382        C  0.46756918  0.59159083  0.95949772     0.26600
C383        C  0.42452079  0.56340224  0.95954636     0.26600
C384        C  0.54384235  0.47787236  0.95844951     0.26600
C385        C  0.50075902  0.44989193  0.95569959     0.26600
C386        C  0.52271655  0.57626747  0.96343588     0.35300
C387        C  0.55133834  0.53432716  0.96461640     0.35300
C388        C  0.41375296  0.50473511  0.95966154     0.35300
C389        C  0.44247018  0.46214506  0.95772276     0.35300
C390        C  0.44313828  0.61195885  0.95150111    -0.22200
C391        C  0.41582495  0.59422241  0.95185592    -0.22200
C392        C  0.55306228  0.44765003  0.94987519    -0.22200
C393        C  0.52585751  0.42990392  0.94818368    -0.22200
C394        C  0.52276987  0.56597683  0.99443471    -0.23300
C395        C  0.54062363  0.53886589  0.99511243    -0.23300
C396        C  0.39320244  0.47951047  0.95508809    -0.23300
C397        C  0.41129087  0.45264010  0.95409846    -0.23300
C398        C  0.49945179  0.59612965  0.95066432    -0.18600
C399        C  0.40524170  0.53661766  0.95343542    -0.18600
C400        C  0.46851189  0.44270937  0.94963074    -0.18600
C401        C  0.56203663  0.50529932  0.95309152    -0.18600
H402        H  0.44533105  0.63597255  0.94281364     0.14300
H403        H  0.39276055  0.60226990  0.94393710     0.14300
H404        H  0.57645145  0.44010979  0.94258286     0.14300
H405        H  0.52459785  0.40572772  0.93979186     0.14300
H406        H  0.50856894  0.57559385  0.01326830     0.12600
H407        H  0.54319633  0.52247046  0.01458359     0.12600
H408        H  0.36797724  0.48057647  0.95056998     0.12600
H409        H  0.40277426  0.42904148  0.94878155     0.12600
H410        H  0.46946994  0.54249135  0.96977174     0.25800
H411        H  0.49918391  0.49903573  0.96775859     0.25800
N412        N  0.52924965  0.44044435  0.08460636    -0.36900
N413        N  0.46770982  0.43621005  0.05479152    -0.57500
N414        N  0.46459877  0.50585158  0.04441166    -0.36900
N415        N  0.52540134  0.50900042  0.07702644    -0.57500
C416        C  0.51922850  0.41206073  0.09561862     0.26600
C417        C  0.55143709  0.45098999  0.10530540     0.26600
C418        C  0.43391338  0.49810180  0.03976800     0.26600
C419        C  0.46490353  0.53686353  0.05280885     0.26600
C420        C  0.47264308  0.40499431  0.06000877     0.35300
C421        C  0.43964901  0.43889589  0.03951534     0.35300
C422        C  0.55559237  0.50655382  0.08696995     0.35300
C423        C  0.52066635  0.53984663  0.07062151     0.35300
C424        C  0.53607036  0.40432182  0.12297744    -0.22200
C425        C  0.55645264  0.42873041  0.12891664    -0.22200
C426        C  0.41526033  0.52522104  0.04173457    -0.22200
C427        C  0.43485510  0.54961953  0.05006331    -0.22200
C428        C  0.44808442  0.38754137  0.04691965    -0.23300
C429        C  0.42700341  0.40905973  0.03431615    -0.23300
C430        C  0.57038286  0.53586280  0.08619407    -0.23300
C431        C  0.54798235  0.55711720  0.07628024    -0.23300
C432        C  0.49466607  0.39320281  0.08250773    -0.18600
C433        C  0.56691919  0.48049490  0.10412492    -0.18600
C434        C  0.49058400  0.55316598  0.06666196    -0.18600
C435        C  0.42137940  0.46696815  0.03928909    -0.18600
H436        H  0.53349180  0.38366677  0.13790070     0.14300
H437        H  0.57242930  0.43029167  0.14901381     0.14300
H438        H  0.38976691  0.52692716  0.03960648     0.14300
H439        H  0.42751840  0.57357178  0.05553050     0.14300
H440        H  0.44432811  0.36227176  0.04893968     0.12600
H441        H  0.40378610  0.40365076  0.02476030     0.12600
H442        H  0.59397476  0.54168788  0.09449568     0.12600
H443        H  0.55099386  0.58250848  0.07482477     0.12600
H444        H  0.52168307  0.45201228  0.06414471     0.25800
H445        H  0.48353048  0.49019095  0.04481694     0.25800
C446        C  0.17576069  0.52845842  0.68172245     0.79900
N447        N  0.18795588  0.50042998  0.69264263    -0.78400
C448        C  0.17430850  0.47233555  0.68375364     0.82300
N449        N  0.14818019  0.47276535  0.66458715    -0.78400
C450        C  0.13617068  0.50058624  0.65379902     0.82400
N451        N  0.15012692  0.52810323  0.66233742    -0.80100
C452        C  0.29684769  0.49794859  0.81128774     0.79900
N453        N  0.31338217  0.50427769  0.83823259    -0.78400
C454        C  0.32304538  0.53400214  0.84510084     0.82300
N455        N  0.31680994  0.55783066  0.82460804    -0.78400
C456        C  0.30023612  0.55218101  0.79754025     0.82400
N457        N  0.28984951  0.52222334  0.79096794    -0.80100
C458        C  0.51129406  0.80748622  0.67242488     0.79900
N459        N  0.50888239  0.83452306  0.65540273    -0.78400
C460        C  0.48035820  0.84759436  0.64892972     0.82300
N461        N  0.45363615  0.83329825  0.65921591    -0.78400
C462        C  0.45539768  0.80606222  0.67627795     0.82400
N463        N  0.48434661  0.79336548  0.68350500    -0.80100
C464        C  0.53201984  0.68091451  0.78696957     0.79900
N465        N  0.53281696  0.66164604  0.81275490    -0.78400
C466        C  0.50592620  0.65154455  0.82652376     0.82300
N467        N  0.47784395  0.66127230  0.81486751    -0.78400
C468        C  0.47595365  0.68071469  0.78933254     0.82400
N469        N  0.50338189  0.69101917  0.77535217    -0.80100
C470        C  0.80548158  0.68587035  0.46502604     0.79900
N471        N  0.83009550  0.66552154  0.46166196    -0.78400
C472        C  0.84623428  0.65492959  0.48734330     0.82300
N473        N  0.83771383  0.66485633  0.51670679    -0.78400
C474        C  0.81318946  0.68531779  0.52052012     0.82400
N475        N  0.79709925  0.69610924  0.49451364    -0.80100
C476        C  0.68726012  0.81193576  0.48463327     0.79900
N477        N  0.67142998  0.83965645  0.48792385    -0.78400
C478        C  0.66298449  0.85054579  0.51681821     0.82300
N479        N  0.66982957  0.83324477  0.54308868    -0.78400
C480        C  0.68558038  0.80522940  0.54037272     0.82400
N481        N  0.69459740  0.79470731  0.51108779    -0.80100
C482        C  0.48821404  0.80519650  0.31448317     0.79900
N483        N  0.49569854  0.83307287  0.32884454    -0.78400
C484        C  0.52621076  0.84051660  0.33568709     0.82300
N485        N  0.54950429  0.81968662  0.32903165    -0.78400
C486        C  0.54296197  0.79183897  0.31459835     0.82400
N487        N  0.51224606  0.78463923  0.30680968    -0.80100
C488        C  0.46166257  0.68246896  0.19942618     0.79900
N489        N  0.49114587  0.69114882  0.20966311    -0.78400
C490        C  0.51730576  0.67907927  0.19491454     0.82300
N491        N  0.51373565  0.65944394  0.16976562    -0.78400
C492        C  0.48455621  0.65156586  0.15917569     0.82400
N493        N  0.45859939  0.66266010  0.17425836    -0.80100
N494        N  0.48001961  0.95351161  0.45322649    -0.36900
N495        N  0.54708018  0.96201622  0.46946437    -0.57500
N496        N  0.53472383  0.97343177  0.53685469    -0.36900
N497        N  0.46728305  0.96194460  0.51976590    -0.57500
C498        C  0.49441859  0.93973365  0.42812423     0.26600
C499        C  0.45084067  0.94031898  0.45548995     0.26600
C500        C  0.56613560  0.96719512  0.53814033     0.26600
C501        C  0.52284135  0.96599395  0.56561321     0.26600
C502        C  0.54915435  0.95968911  0.43763427     0.35300
C503        C  0.57623947  0.96958850  0.48031886     0.35300
C504        C  0.43722513  0.96026823  0.50901303     0.35300
C505        C  0.46587126  0.96781434  0.55114211     0.35300
C506        C  0.47346685  0.91888415  0.41348782    -0.22200
C507        C  0.44611213  0.91937450  0.43058409    -0.22200
C508        C  0.57466946  0.95880575  0.56882375    -0.22200
C509        C  0.54728384  0.95804201  0.58619108    -0.22200
C510        C  0.57981433  0.96605380  0.42798865    -0.23300
C511        C  0.59703732  0.97202815  0.45508639    -0.23300
C512        C  0.41632987  0.96573728  0.53368895    -0.23300
C513        C  0.43452685  0.97016405  0.56046710    -0.23300
C514        C  0.52646418  0.94380762  0.41894096    -0.18600
C515        C  0.42915096  0.94449889  0.48065822    -0.18600
C516        C  0.49064672  0.95946423  0.57181528    -0.18600
C517        C  0.58604260  0.96302176  0.51157744    -0.18600
H518        H  0.47757170  0.90358326  0.39335217     0.14300
H519        H  0.42563586  0.90468089  0.42586918     0.14300
H520        H  0.59781155  0.95138470  0.57710700     0.14300
H521        H  0.54515445  0.94976331  0.61039773     0.14300
H522        H  0.58932247  0.96359806  0.40429217     0.12600
H523        H  0.62247624  0.97482457  0.45635696     0.12600
H524        H  0.39080090  0.96337299  0.53303668     0.12600
H525        H  0.42573175  0.97194916  0.58448533     0.12600
H526        H  0.48997023  0.97011804  0.46845485     0.25800
H527        H  0.52160376  0.97859760  0.51670141     0.25800
N528        N  0.45078232  0.06132719  0.56592356    -0.36900
N529        N  0.44153029  0.04794639  0.49847542    -0.57500
N530        N  0.50829388  0.03287183  0.48845987    -0.36900
N531        N  0.51742347  0.04982613  0.55509939    -0.57500
C532        C  0.42379510  0.07788853  0.56038526     0.26600
C533        C  0.46387222  0.07351113  0.59264076     0.26600
C534        C  0.49815707  0.03387592  0.45809414     0.26600
C535        C  0.53927800  0.04122981  0.48813614     0.26600
C536        C  0.41182650  0.05651404  0.50674714     0.35300
C537        C  0.43979608  0.03537989  0.46902019     0.35300
C538        C  0.51805392  0.05103326  0.58692860     0.35300
C539        C  0.54731774  0.04441400  0.54565237     0.35300
C540        C  0.41848365  0.09889003  0.58508205    -0.22200
C541        C  0.44362844  0.09611479  0.60542984    -0.22200
C542        C  0.52393036  0.03973176  0.43828632    -0.22200
C543        C  0.54970134  0.04470094  0.45735157    -0.22200
C544        C  0.39085148  0.04908382  0.48258052    -0.23300
C545        C  0.40846401  0.03521185  0.45888096    -0.23300
C546        C  0.54860756  0.04546900  0.59792173    -0.23300
C547        C  0.56732830  0.04203032  0.57156862    -0.23300
C548        C  0.40494047  0.07663874  0.53257986    -0.18600
C549        C  0.49486063  0.06727983  0.60428681    -0.18600
C550        C  0.55726023  0.05040718  0.51469922    -0.18600
C551        C  0.46595532  0.03423118  0.44806853    -0.18600
H552        H  0.39910405  0.11549668  0.58758581     0.14300
H553        H  0.44723812  0.11051164  0.62638030     0.14300
H554        H  0.52412694  0.04258152  0.41282365     0.14300
H555        H  0.57305550  0.05186341  0.44962358     0.14300
H556        H  0.36586829  0.05475761  0.48143429     0.12600
H557        H  0.39980746  0.02880346  0.43553135     0.12600
H558        H  0.55702296  0.04739171  0.62214386     0.12600
H559        H  0.59286933  0.03994553  0.57141128     0.12600
H560        H  0.46058313  0.04385135  0.55164325     0.25800
H561        H  0.49417006  0.02940137  0.50823313     0.25800
C562        C  0.20522677  0.69461194  0.53198650     0.79900
N563        N  0.17739420  0.67941965  0.53727397    -0.78400
C564        C  0.15920111  0.66949794  0.51280669     0.82300
N565        N  0.16892107  0.67448053  0.48273307    -0.78400
C566        C  0.19660160  0.68944277  0.47680771     0.82400
N567        N  0.21458319  0.70047867  0.50154614    -0.80100
C568        C  0.30680723  0.80409899  0.45422549     0.79900
N569        N  0.32626590  0.82963149  0.45135954    -0.78400
C570        C  0.33475593  0.84638704  0.47750023     0.82300
N571        N  0.32433714  0.83727488  0.50628832    -0.78400
C572        C  0.30496358  0.81212877  0.50950287     0.82400
N573        N  0.29557878  0.79557766  0.48334886    -0.80100
C574        C  0.29107322  0.22684914  0.53952240     0.79900
N575        N  0.31035906  0.20130795  0.54326966    -0.78400
C576        C  0.32270335  0.18596810  0.51792034     0.82300
N577        N  0.31570639  0.19605971  0.48824470    -0.78400
C578        C  0.29621825  0.22116557  0.48292439     0.82400
N579        N  0.28343285  0.23671918  0.50896246    -0.80100
C580        C  0.16453546  0.31219079  0.48103179     0.79900
N581        N  0.16669827  0.30583184  0.51234798    -0.78400
C582        C  0.14287184  0.31474861  0.53193180     0.82300
N583        N  0.11671460  0.32946853  0.52018592    -0.78400
C584        C  0.11415202  0.33455287  0.48849473     0.82400
N585        N  0.13822578  0.32608809  0.46925123    -0.80100
C586        C  0.80331298  0.50703368  0.32683500     0.79900
N587        N  0.78551437  0.48113959  0.31797515    -0.78400
C588        C  0.79336883  0.45146575  0.32906314     0.82300
N589        N  0.81957124  0.44800343  0.34762845    -0.78400
C590        C  0.83738121  0.47346009  0.35577613     0.82400
N591        N  0.82899403  0.50263219  0.34567395    -0.80100
C592        C  0.69666018  0.46954753  0.23338546     0.79900
N593        N  0.70957459  0.49776813  0.24260268    -0.78400
C594        C  0.69675870  0.52526098  0.23120273     0.82300
N595        N  0.67241112  0.52417113  0.21017403    -0.78400
C596        C  0.66064617  0.49612222  0.20052550     0.82400
N597        N  0.67263447  0.46907071  0.21221814    -0.80100
N598        N  0.95768124  0.43756355  0.48421929    -0.36900
N599        N  0.95154990  0.50660688  0.47546540    -0.57500
N600        N  0.94206278  0.51986009  0.54226203    -0.36900
N601        N  0.94564779  0.45188769  0.55152973    -0.57500
C602        C  0.95017049  0.43898058  0.45300844     0.26600
C603        C  0.94774632  0.40898152  0.49463150     0.26600
C604        C  0.93059412  0.54648164  0.52850546     0.26600
C605        C  0.92635768  0.51626877  0.57000670     0.26600
C606        C  0.95905477  0.49638429  0.44611571     0.35300
C607        C  0.95267855  0.53848908  0.47471565     0.35300
C608        C  0.95136446  0.42047195  0.55214251     0.35300
C609        C  0.94342538  0.46151678  0.58195394     0.35300
C610        C  0.93821880  0.41006454  0.44298404    -0.22200
C611        C  0.93678230  0.39107418  0.46925339    -0.22200
C612        C  0.90859967  0.56060069  0.54847953    -0.22200
C613        C  0.90595782  0.54160397  0.57456537    -0.22200
C614        C  0.96503685  0.52200741  0.42655150    -0.23300
C615        C  0.96130521  0.54874467  0.44476700    -0.23300
C616        C  0.95286270  0.41009802  0.58330489    -0.23300
C617        C  0.94809192  0.43615950  0.60222850    -0.23300
C618        C  0.94890049  0.46687755  0.43461454    -0.18600
C619        C  0.94290526  0.40064918  0.52671807    -0.18600
C620        C  0.92862889  0.49004517  0.59070018    -0.18600
C621        C  0.93806982  0.55764910  0.49774247    -0.18600
H622        H  0.92926171  0.40403743  0.41965677     0.14300
H623        H  0.92644210  0.36763754  0.47007397     0.14300
H624        H  0.89470610  0.58172671  0.54432030     0.14300
H625        H  0.88982648  0.54553983  0.59407649     0.14300
H626        H  0.96875860  0.52145163  0.40116062     0.12600
H627        H  0.96196665  0.57292450  0.43629336     0.12600
H628        H  0.95393541  0.38583911  0.59142862     0.12600
H629        H  0.94516631  0.43596518  0.62773841     0.12600
H630        H  0.96589579  0.45610295  0.49819253     0.25800
H631        H  0.95926122  0.50480638  0.53301422     0.25800
N632        N  0.04626223  0.55772567  0.45358905    -0.36900
N633        N  0.03932486  0.48942716  0.44427076    -0.57500
N634        N  0.02566143  0.47671371  0.51104557    -0.36900
N635        N  0.03416761  0.54478114  0.52036388    -0.57500
C636        C  0.06281971  0.55352907  0.42636940     0.26600
C637        C  0.05779804  0.58429445  0.46748775     0.26600
C638        C  0.03417087  0.44776797  0.50024604     0.26600
C639        C  0.03444514  0.47791580  0.54200583     0.26600
C640        C  0.04465102  0.49916175  0.41428216     0.35300
C641        C  0.03011262  0.45890399  0.44248044     0.35300
C642        C  0.03426272  0.57667209  0.52099753     0.35300
C643        C  0.02629025  0.53509424  0.54978876     0.35300
C644        C  0.08296018  0.57889414  0.42162464    -0.22200
C645        C  0.08017830  0.59801372  0.44759193    -0.22200
C646        C  0.04636585  0.42995131  0.52525276    -0.22200
C647        C  0.04655851  0.44895583  0.55141866    -0.22200
C648        C  0.03830601  0.47484321  0.39314114    -0.23300
C649        C  0.02859141  0.44942296  0.41099055    -0.23300
C650        C  0.02588946  0.58735564  0.55095525    -0.23300
C651        C  0.02101786  0.56094684  0.56924207    -0.23300
C652        C  0.06309232  0.52594846  0.40729986    -0.18600
C653        C  0.05090635  0.59505391  0.49872469    -0.18600
C654        C  0.03489510  0.50518045  0.56132453    -0.18600
C655        C  0.03388386  0.43779352  0.46806683    -0.18600
H656        H  0.09945281  0.58233950  0.40231905     0.14300
H657        H  0.09458092  0.61874543  0.45167453     0.14300
H658        H  0.05610092  0.40630545  0.52476904     0.14300
H659        H  0.05606083  0.44253997  0.57441490     0.14300
H660        H  0.04256698  0.47465029  0.36784513     0.12600
H661        H  0.02450688  0.42567165  0.40220498     0.12600
H662        H  0.02639154  0.61155568  0.55943959     0.12600
H663        H  0.01724647  0.56064954  0.59463789     0.12600
H664        H  0.02942875  0.54248243  0.46304542     0.25800
H665        H  0.01594621  0.49499321  0.49760429     0.25800
C666        C  0.78033273  0.31261526  0.56132879     0.79900
N667        N  0.76807215  0.30318838  0.53252040    -0.78400
C668        C  0.78437353  0.31024423  0.50515945     0.82300
N669        N  0.81259918  0.32541459  0.50727341    -0.78400
C670        C  0.82469558  0.33430600  0.53538431     0.82400
N671        N  0.80841967  0.32840469  0.56206052    -0.80100
C672        C  0.66562616  0.19982266  0.48014307     0.79900
N673        N  0.67279621  0.21460162  0.50829554    -0.78400
C674        C  0.66006416  0.20350713  0.53611508     0.82300
N675        N  0.64170196  0.17722681  0.53550789    -0.78400
C676        C  0.63511595  0.16230567  0.50797648     0.82400
N677        N  0.64700284  0.17356707  0.48046373    -0.80100
C678        C  0.80608980  0.69006425  0.04152061     0.79900
N679        N  0.82424599  0.66363607  0.04336761    -0.78400
C680        C  0.83312445  0.64782148  0.01697919     0.82300
N681        N  0.82436983  0.65907656  0.98817086    -0.78400
C682        C  0.80629420  0.68562314  0.98568690     0.82400
N683        N  0.79648283  0.70088964  0.01254621    -0.80100
C684        C  0.68971986  0.80317714  0.96571683     0.79900
N685        N  0.70497306  0.79217039  0.99236991    -0.78400
C686        C  0.69296830  0.79905033  0.02178324     0.82300
N687        N  0.66613223  0.81625223  0.02425770    -0.78400
C688        C  0.65058336  0.82657235  0.99839512     0.82400
N689        N  0.66256071  0.82038708  0.96934112    -0.80100
C690        C  0.01494166  0.72219081  0.80793140     0.79900
N691        N  0.98525039  0.73281660  0.79978005    -0.78400
C692        C  0.95912776  0.71859171  0.81293007     0.82300
N693        N  0.96340644  0.69332681  0.83261857    -0.78400
C694        C  0.99276410  0.68288670  0.84015468     0.82400
N695        N  0.01810942  0.69737752  0.82775324    -0.80100
C696        C  0.03237763  0.82358489  0.71571357     0.79900
N697        N  0.00261520  0.81348023  0.72334874    -0.78400
C698        C  0.97704443  0.82449740  0.70653706     0.82300
N699        N  0.98183022  0.84431751  0.68171972    -0.78400
C700        C  0.01136115  0.85370550  0.67378432     0.82400
N701        N  0.03639690  0.84329007  0.69075806    -0.80100
C702        C  0.66350143  0.98334861  0.81100165     0.79900
N703        N  0.63876156  0.98710281  0.83140246    -0.78400
C704        C  0.63162894  0.01604841  0.84356131     0.82300
N705        N  0.64956712  0.04133718  0.83565634    -0.78400
C706        C  0.67399217  0.03828073  0.81515312     0.82400
N707        N  0.68084711  0.00933271  0.80255929    -0.80100
C708        C  0.78629344  0.02297662  0.71314928     0.79900
N709        N  0.80379134  0.02626342  0.68660411    -0.78400
C710        C  0.81588172  0.00083632  0.67154368     0.82300
N711        N  0.81086098  0.97162672  0.68365543    -0.78400
C712        C  0.79361638  0.96785903  0.71056901     0.82400
N713        N  0.78064257  0.99360316  0.72520987    -0.80100
C714        C  0.27174092  0.21052982  0.97928649     0.79900
N715        N  0.29837357  0.19250233  0.98093316    -0.78400
C716        C  0.31082915  0.18290400  0.00889663     0.82300
N717        N  0.29617959  0.19116142  0.03627272    -0.78400
C718        C  0.26962547  0.20946603  0.03623700     0.82400
N719        N  0.25717717  0.21945915  0.00737573    -0.80100
C720        C  0.16068469  0.31655948  0.04314890     0.79900
N721        N  0.17147632  0.31032963  0.01352646    -0.78400
C722        C  0.16019859  0.32722831  0.98850742     0.82300
N723        N  0.13989282  0.35161136  0.99353976    -0.78400
C724        C  0.12992272  0.35816871  0.02328398     0.82400
N725        N  0.14020064  0.34063659  0.04791805    -0.80100
C726        C  0.70201672  0.00775273  0.18889776     0.79900
N727        N  0.71732146  0.98069986  0.19852901    -0.78400
C728        C  0.70551677  0.95166527  0.18998924     0.82300
N729        N  0.67798968  0.95001211  0.17332935    -0.78400
C730        C  0.66243686  0.97660170  0.16468187     0.82400
N731        N  0.67445860  0.00525446  0.17243415    -0.80100
C732        C  0.82073829  0.97380116  0.31660579     0.79900
N733        N  0.80948116  0.00245713  0.30632194    -0.78400
C734        C  0.81966435  0.02982166  0.32055237     0.82300
N735        N  0.84062896  0.02803457  0.34510365    -0.78400
C736        C  0.85110351  0.99960927  0.35574589     0.82400
N737        N  0.84110782  0.97273342  0.34150443    -0.80100
N738        N  0.43072628  0.04946169  0.96653383    -0.36900
N739        N  0.44955092  0.98316983  0.97122966    -0.57500
N740        N  0.46252115  0.98477961  0.03953737    -0.36900
N741        N  0.43979260  0.05154191  0.03347781    -0.57500
C742        C  0.41881963  0.03641922  0.93977793     0.26600
C743        C  0.41076584  0.07317737  0.97505748     0.26600
C744        C  0.45694878  0.95346612  0.03548835     0.26600
C745        C  0.45483141  0.99152090  0.06986690     0.26600
C746        C  0.44988904  0.98668997  0.93948394     0.35300
C747        C  0.46054471  0.95380971  0.97741233     0.35300
C748        C  0.43309306  0.08225447  0.02797998     0.35300
C749        C  0.45139716  0.04949990  0.06319739     0.35300
C750        C  0.39156927  0.05268626  0.93073596    -0.22200
C751        C  0.38656693  0.07587173  0.95295883    -0.22200
C752        C  0.44879305  0.93978425  0.06421019    -0.22200
C753        C  0.44769387  0.96380314  0.08601269    -0.22200
C754        C  0.46172523  0.95948686  0.92531236    -0.23300
C755        C  0.46781262  0.93838112  0.94943408    -0.23300
C756        C  0.44068635  0.10030101  0.05428365    -0.23300
C757        C  0.45219401  0.07947383  0.07667769    -0.23300
C758        C  0.43136498  0.00966850  0.92379582    -0.18600
C759        C  0.41349905  0.09187845  0.00274035    -0.18600
C760        C  0.44682827  0.02196509  0.08116086    -0.18600
C761        C  0.45378604  0.93815961  0.00589525    -0.18600
H762        H  0.37610061  0.04781079  0.91080107     0.14300
H763        H  0.36678009  0.09218014  0.95326169     0.14300
H764        H  0.44190194  0.91550333  0.06852282     0.14300
H765        H  0.43945410  0.96163781  0.11020857     0.14300
H766        H  0.46261922  0.95426382  0.90017678     0.12600
H767        H  0.47437076  0.91375092  0.94670066     0.12600
H768        H  0.43582966  0.12521237  0.05786670     0.12600
H769        H  0.45730366  0.08521870  0.10116583     0.12600
H770        H  0.45149263  0.04249402  0.97804744     0.25800
H771        H  0.46756185  0.00127913  0.02195853     0.25800
N772        N  0.53879402  0.96684101  0.98424199    -0.36900
N773        N  0.53565135  0.95630293  0.05239075    -0.57500
N774        N  0.52564849  0.02348390  0.06715792    -0.36900
N775        N  0.53136804  0.03370024  0.99802560    -0.57500
C776        C  0.55289270  0.93814400  0.98709759     0.26600
C777        C  0.55041943  0.98019486  0.95748007     0.26600
C778        C  0.53441174  0.01271807  0.09611027     0.26600
C779        C  0.53237782  0.05474935  0.06667261     0.26600
C780        C  0.53657387  0.92606608  0.04225024     0.35300
C781        C  0.53137151  0.95547502  0.08406286     0.35300
C782        C  0.53134703  0.03515271  0.96605993     0.35300
C783        C  0.52559855  0.06322859  0.00876968     0.35300
C784        C  0.57228724  0.93271966  0.96113797    -0.22200
C785        C  0.57067561  0.95906015  0.94251523    -0.22200
C786        C  0.54388913  0.03787332  0.11504935    -0.22200
C787        C  0.54266085  0.06441997  0.09643852    -0.22200
C788        C  0.53250485  0.90567280  0.06763062    -0.23300
C789        C  0.52961605  0.92434534  0.09419336    -0.23300
C790        C  0.52508665  0.06579452  0.95620699    -0.23300
C791        C  0.52180981  0.08364681  0.98331146    -0.23300
C792        C  0.55055999  0.91734113  0.01329335    -0.18600
C793        C  0.54497481  0.01154270  0.94682583    -0.18600
C794        C  0.53542515  0.07337526  0.03904521    -0.18600
C795        C  0.54036236  0.98070866  0.10384594    -0.18600
H796        H  0.58718848  0.91240756  0.95647553     0.14300
H797        H  0.58414296  0.96257115  0.92101069     0.14300
H798        H  0.55336215  0.03672486  0.13892830     0.14300
H799        H  0.55096250  0.08770031  0.10325268     0.14300
H800        H  0.53477968  0.88013986  0.06740182     0.12600
H801        H  0.52928081  0.91593769  0.11840001     0.12600
H802        H  0.52593531  0.07481916  0.93218910     0.12600
H803        H  0.51997709  0.10918129  0.98425444     0.12600
H804        H  0.52276997  0.97696109  0.99996595     0.25800
H805        H  0.51915451  0.00983270  0.04778398     0.25800
C806        C  0.69676505  0.16940461  0.05850088     0.79900
N807        N  0.66981234  0.15218089  0.06240681    -0.78400
C808        C  0.65188417  0.14386740  0.03702195     0.82300
N809        N  0.66059329  0.15289630  0.00766417    -0.78400
C810        C  0.68688293  0.17055364  0.00280882     0.82400
N811        N  0.70498253  0.17930995  0.02856551    -0.80100
C812        C  0.81023483  0.26061250  0.98263919     0.79900
N813        N  0.80064317  0.25421034  0.01304999    -0.78400
C814        C  0.81694772  0.26690318  0.03833571     0.82300
N815        N  0.84148409  0.28672666  0.03239964    -0.78400
C816        C  0.85036844  0.29375933  0.00245846     0.82400
N817        N  0.83452059  0.28090174  0.97785376    -0.80100
C818        C  0.29311232  0.97632183  0.17079351     0.79900
N819        N  0.31865017  0.98055684  0.15192460    -0.78400
C820        C  0.32651437  0.00987692  0.14194475     0.82300
N821        N  0.30908400  0.03503501  0.15098406    -0.78400
C822        C  0.28358386  0.03112746  0.16995570     0.82400
N823        N  0.27628102  0.00178478  0.18093706    -0.80100
C824        C  0.19899172  0.02730787  0.28669823     0.79900
N825        N  0.18130255  0.02526387  0.31356613    -0.78400
C826        C  0.17388275  0.99687188  0.32658991     0.82300
N827        N  0.18413988  0.96995300  0.31261463    -0.78400
C828        C  0.20164866  0.97042801  0.28567729     0.82400
N829        N  0.20947194  0.99951383  0.27250501    -0.80100
C830        C  0.98352219  0.69647864  0.18091161     0.79900
N831        N  0.98511572  0.67077128  0.16161118    -0.78400
C832        C  0.01328614  0.66025262  0.15075948     0.82300
N833        N  0.04009898  0.67566684  0.15892828    -0.78400
C834        C  0.03952433  0.70148520  0.17826099     0.82400
N835        N  0.01095887  0.71160723  0.19001811    -0.80100
C836        C  0.96272878  0.80749542  0.28026547     0.79900
N837        N  0.99259723  0.79955222  0.27075131    -0.78400
C838        C  0.01810669  0.81374625  0.28492243     0.82300
N839        N  0.01336623  0.83411787  0.30924177    -0.78400
C840        C  0.98381651  0.84136611  0.31896248     0.82400
N841        N  0.95859967  0.82788620  0.30471442    -0.80100
N842        N  0.93145378  0.43460478  0.06225263    -0.36900
N843        N  0.99743359  0.45283977  0.06748664    -0.57500
N844        N  0.00400831  0.46735176  0.99806783    -0.36900
N845        N  0.93033876  0.42724605  0.97327462    -0.57500
C846        C  0.93752781  0.42297431  0.09153040     0.26600
C847        C  0.90550670  0.41945502  0.05113728     0.26600
C848        C  0.03469722  0.46785896  0.00687424     0.26600
C849        C  0.00328644  0.46244697  0.96624975     0.26600
C850        C  0.99174270  0.44587503  0.09824374     0.35300
C851        C  0.02718029  0.46443640  0.06584971     0.35300
C852        C  0.91120149  0.43764529  0.99656261     0.35300
C853        C  0.94687486  0.45272444  0.96385281     0.35300
C854        C  0.91342833  0.40227298  0.10009468    -0.22200
C855        C  0.89322307  0.40005340  0.07454204    -0.22200
C856        C  0.05357434  0.46602385  0.97985873    -0.22200
C857        C  0.03366708  0.46257222  0.95424709    -0.22200
C858        C  0.01809547  0.45314366  0.11646299    -0.23300
C859        C  0.04046858  0.46491082  0.09599140    -0.23300
C860        C  0.91386336  0.47001103  0.00058484    -0.23300
C861        C  0.93640265  0.47965212  0.97933747    -0.23300
C862        C  0.96613601  0.42706021  0.10883416    -0.18600
C863        C  0.89827461  0.41671375  0.01851108    -0.18600
C864        C  0.97691819  0.44940689  0.95038492    -0.18600
C865        C  0.04583214  0.46240403  0.03818987    -0.18600
H866        H  0.91180075  0.38828800  0.12153081     0.14300
H867        H  0.87353256  0.38377145  0.07228544     0.14300
H868        H  0.07904137  0.46394694  0.97873733     0.14300
H869        H  0.04076100  0.45722782  0.93016781     0.14300
H870        H  0.02154943  0.44835821  0.14147064     0.12600
H871        H  0.06486362  0.47020682  0.10196098     0.12600
H872        H  0.90303853  0.48437002  0.01887447     0.12600
H873        H  0.94683529  0.50282525  0.97810372     0.12600
H874        H  0.94594496  0.44910607  0.04880522     0.25800
H875        H  0.98484979  0.46543715  0.01332490     0.25800
N876        N  0.97353748  0.55872116  0.96613110    -0.36900
N877        N  0.04125301  0.55507796  0.95803399    -0.57500
N878        N  0.05491450  0.54163585  0.02536780    -0.36900
N879        N  0.98537850  0.54627454  0.03230493    -0.57500
C880        C  0.97791502  0.57582503  0.93940622     0.26600
C881        C  0.94699102  0.57007001  0.98002629     0.26600
C882        C  0.08294893  0.55390331  0.01598379     0.26600
C883        C  0.05248176  0.54775494  0.05677306     0.26600
C884        C  0.03235675  0.55808789  0.92749259     0.35300
C885        C  0.07290727  0.55128701  0.95828495     0.35300
C886        C  0.95351808  0.54423681  0.03205996     0.35300
C887        C  0.99529926  0.53661965  0.06113829     0.35300
C888        C  0.95338788  0.59749466  0.93588547    -0.22200
C889        C  0.93389662  0.59379422  0.96135548    -0.22200
C890        C  0.09978836  0.56478825  0.04211116    -0.22200
C891        C  0.08049738  0.56094865  0.06790730    -0.22200
C892        C  0.05843648  0.55505295  0.90787534    -0.23300
C893        C  0.08421623  0.55104349  0.92747162    -0.23300
C894        C  0.94286289  0.53267774  0.06081616    -0.23300
C895        C  0.96939865  0.52820605  0.07939807    -0.23300
C896        C  0.00413891  0.57351607  0.91877877    -0.18600
C897        C  0.93476172  0.56043955  0.00966831    -0.18600
C898        C  0.02394198  0.54752483  0.07417879    -0.18600
C899        C  0.09115592  0.56100574  0.98434311    -0.18600
H900        H  0.95017196  0.61504574  0.91747912     0.14300
H901        H  0.91311009  0.60802445  0.96602146     0.14300
H902        H  0.12243194  0.57682125  0.04209930     0.14300
H903        H  0.08542579  0.56946677  0.09164607     0.14300
H904        H  0.05922488  0.55907330  0.88252068     0.12600
H905        H  0.10876929  0.55150825  0.92017305     0.12600
H906        H  0.91852047  0.53074914  0.06855327     0.12600
H907        H  0.96949479  0.52249869  0.10442331     0.12600
H908        H  0.98793826  0.54047398  0.97447529     0.25800
H909        H  0.03701063  0.53314431  0.01067867     0.25800
C910        C  0.30842941  0.82189579  0.03397972     0.79900
N911        N  0.33362932  0.84214025  0.03456715    -0.78400
C912        C  0.34643306  0.85324559  0.00731087     0.82300
N913        N  0.33428356  0.84396695  0.97915766    -0.78400
C914        C  0.30965625  0.82343214  0.97742718     0.82400
N915        N  0.29658343  0.81217298  0.00509423    -0.80100
C916        C  0.18664278  0.72095238  0.95490494     0.79900
N917        N  0.16919498  0.69409352  0.95205306    -0.78400
C918        C  0.15974094  0.67819978  0.97807058     0.82300
N919        N  0.16767004  0.68907159  0.00713960    -0.78400
C920        C  0.18519798  0.71572351  0.01057603     0.82400
N921        N  0.19558256  0.73142102  0.98425599    -0.80100
C922        C  0.02028516  0.28490543  0.21992399     0.79900
N923        N  0.01580250  0.31089720  0.20144082    -0.78400
C924        C  0.98658580  0.32193561  0.19436558     0.82300
N925        N  0.96087341  0.30679947  0.20588671    -0.78400
C926        C  0.96389394  0.28048225  0.22422319     0.82400
N927        N  0.99392047  0.26930136  0.23150567    -0.80100
C928        C  0.02488377  0.19111870  0.34803192     0.79900
N929        N  0.03102328  0.17574291  0.37539982    -0.78400
C930        C  0.00740551  0.16690454  0.39483353     0.82300
N931        N  0.97704281  0.17280139  0.38631489    -0.78400
C932        C  0.97057053  0.18859956  0.35892859     0.82400
N933        N  0.99462532  0.19775609  0.33971814    -0.80100
C934        C  0.96331948  0.30172206  0.84078545     0.79900
N935        N  0.99108454  0.28988761  0.82881417    -0.78400
C936        C  0.01938605  0.30347585  0.83731336     0.82300
N937        N  0.01944695  0.32926491  0.85677245    -0.78400
C938        C  0.99182216  0.34144542  0.86770361     0.82400
N939        N  0.96415344  0.32763313  0.85963845    -0.80100
C940        C  0.94003509  0.18646428  0.72085297     0.79900
N941        N  0.94092892  0.17027712  0.69292166    -0.78400
C942        C  0.96855411  0.16344165  0.67858259     0.82300
N943        N  0.99600240  0.17223590  0.69234782    -0.78400
C944        C  0.99621931  0.18827557  0.72025674     0.82400
N945        N  0.96801711  0.19591138  0.73455737    -0.80100
N946        N  0.04615962  0.94137950  0.44585623    -0.36900
N947        N  0.05254927  0.00886681  0.46154277    -0.57500
N948        N  0.98507111  0.01680533  0.47734202    -0.36900
N949        N  0.95854883  0.93795198  0.44394625    -0.57500
C950        C  0.07407022  0.94763428  0.43147223     0.26600
C951        C  0.03475758  0.91424484  0.43303434     0.26600
C952        C  0.99363443  0.04746146  0.47573408     0.26600
C953        C  0.95346312  0.01544643  0.47172089     0.26600
C954        C  0.08286054  0.00164987  0.45418844     0.35300
C955        C  0.05242708  0.03881727  0.47298801     0.35300
C956        C  0.98182743  0.91930462  0.45547815     0.35300
C957        C  0.95134284  0.95810222  0.46758933     0.35300
C958        C  0.08128153  0.92314980  0.41066480    -0.22200
C959        C  0.05660040  0.90199881  0.41182838    -0.22200
C960        C  0.96653666  0.06596428  0.47166861    -0.22200
C961        C  0.94127416  0.04566288  0.46887827    -0.22200
C962        C  0.10234424  0.02701443  0.46151735    -0.23300
C963        C  0.08313934  0.05045064  0.47354844    -0.23300
C964        C  0.98806917  0.92611461  0.48691413    -0.23300
C965        C  0.96828552  0.95058497  0.49471717    -0.23300
C966        C  0.09182781  0.97601102  0.43443702    -0.18600
C967        C  0.00285932  0.90411109  0.43516989    -0.18600
C968        C  0.93781267  0.98779181  0.46143501    -0.18600
C969        C  0.02524067  0.05857505  0.47259088    -0.18600
H970        H  0.10142612  0.92139873  0.39496181     0.14300
H971        H  0.05390659  0.88122076  0.39698812     0.14300
H972        H  0.96505385  0.09130296  0.46848782     0.14300
H973        H  0.91721402  0.05219118  0.46275507     0.14300
H974        H  0.12737918  0.02917729  0.45648738     0.12600
H975        H  0.09038025  0.07440807  0.47913706     0.12600
H976        H  0.00749846  0.91721642  0.50115860     0.12600
H977        H  0.96972091  0.96448993  0.51598343     0.12600
H978        H  0.03410453  0.95608663  0.46142250     0.25800
H979        H  0.00044161  0.99765719  0.47814759     0.25800
N980        N  0.95272532  0.04941247  0.56184088    -0.36900
N981        N  0.96041596  0.98229296  0.57007938    -0.57500
N982        N  0.02783009  0.99443675  0.56122280    -0.36900
N983        N  0.01994004  0.06176367  0.54775510    -0.57500
C984        C  0.92258430  0.03915181  0.56049651     0.26600
C985        C  0.95351120  0.07909431  0.55049026     0.26600
C986        C  0.02747056  0.96258790  0.56154985     0.26600
C987        C  0.05733811  0.00378931  0.55391881     0.26600
C988        C  0.93237896  0.98714838  0.58453885     0.35300
C989        C  0.97359741  0.95680546  0.58412691     0.35300
C990        C  0.01002372  0.09180950  0.55250733     0.35300
C991        C  0.05134502  0.06173343  0.55413299     0.35300
C992        C  0.90362427  0.06253889  0.54734221    -0.22200
C993        C  0.92327131  0.08806959  0.54133633    -0.22200
C994        C  0.05699245  0.95128005  0.55265340    -0.22200
C995        C  0.07604881  0.97744196  0.54825689    -0.22200
C996        C  0.92742806  0.96437924  0.60766831    -0.23300
C997        C  0.95352036  0.94513862  0.60740262    -0.23300
C998        C  0.03550218  0.11119732  0.55989694    -0.23300
C999        C  0.06180109  0.09211925  0.56067496    -0.23300
C1000       C  0.91191593  0.01266177  0.57764196    -0.18600
C1001       C  0.97814134  0.10009341  0.55796159    -0.18600
C1002       C  0.06887412  0.03416743  0.56106928    -0.18600
C1003       C  0.00395490  0.94456647  0.57689174    -0.18600
H1004       H  0.87807253  0.06226422  0.54515528     0.14300
H1005       H  0.91578511  0.11136507  0.53373776     0.14300
H1006       H  0.06472889  0.92683939  0.55240699     0.14300
H1007       H  0.10126299  0.97705904  0.54378418     0.14300
H1008       H  0.90772565  0.96236887  0.62388594     0.12600
H1009       H  0.95757874  0.92554023  0.62342094     0.12600
H1010       H  0.03471845  0.13591347  0.56664200     0.12600
H1011       H  0.08533084  0.09913729  0.56816715     0.12600
H1012       H  0.97100559  0.03881987  0.57471166     0.25800
H1013       H  0.01039898  0.00911669  0.57054167     0.25800
C1014       C  0.29606492  0.02957152  0.80812986     0.79900
N1015       N  0.28172382  0.00281704  0.79615828    -0.78400
C1016       C  0.29509124  0.97371095  0.80172923     0.82300
N1017       N  0.32236122  0.97197955  0.81871588    -0.78400
C1018       C  0.33652519  0.99806244  0.83042728     0.82400
N1019       N  0.32334282  0.02671510  0.82506748    -0.80100
C1020       C  0.18210448  0.99391507  0.70365603     0.79900
N1021       N  0.19070624  0.01975180  0.72143348    -0.78400
C1022       C  0.17858536  0.04889034  0.71385642     0.82300
N1023       N  0.15926910  0.05186358  0.68813862    -0.78400
C1024       C  0.15170836  0.02651567  0.67009319     0.82400
N1025       N  0.16290300  0.99768182  0.67807183    -0.80100
O1026       O  0.20596082  0.23936995  0.35848034    -0.88500
C1027       C  0.28414021  0.15167929  0.22685923     1.11500
O1028       O  0.21955203  0.24932174  0.28830810    -1.36300
O1029       O  0.32471188  0.19848741  0.29612556    -0.90000
O1030       O  0.20137407  0.28981481  0.34385277    -0.90700
O1031       O  0.26005787  0.31822279  0.29805136    -0.79500
O1032       O  0.26281062  0.21434359  0.32819324    -1.01600
C1033       C  0.32859394  0.27526165  0.24684238     1.21600
O1034       O  0.24254036  0.27831915  0.23584078    -1.36500
Mn1035     Mn  0.22210949  0.23147467  0.24030500     1.82100
O1036       O  0.31444181  0.28375520  0.27190821    -0.78600
O1037       O  0.33664467  0.20323533  0.24499633    -0.88000
C1038       C  0.24854249  0.22891300  0.17322325     1.12700
C1039       C  0.34441348  0.19777673  0.27338010     1.07400
O1040       O  0.17300047  0.23971785  0.22849124    -0.79500
O1041       O  0.26972651  0.22423932  0.25747226    -1.33200
O1042       O  0.17376802  0.28386897  0.25218277    -0.98700
C1043       C  0.26582616  0.35336841  0.21616905     1.06100
Mn1044     Mn  0.30010926  0.22090423  0.21798280     1.48600
O1045       O  0.23650716  0.34838857  0.22049477    -0.87900
Mn1046     Mn  0.18606335  0.28534962  0.29696543     1.49600
O1047       O  0.16961525  0.20387234  0.30945588    -0.91800
C1048       C  0.27630534  0.23538999  0.34327755     1.19300
C1049       C  0.14696675  0.22362481  0.30951652     1.11300
Mn1050     Mn  0.26578454  0.26992849  0.28073513     1.81000
O1051       O  0.27100930  0.24109790  0.18726527    -0.96900
Mn1052     Mn  0.21708945  0.21073896  0.32036307     1.49300
C1053       C  0.20423799  0.26852209  0.36503653     1.07900
Mn1054     Mn  0.27713004  0.28510551  0.20067089     1.49900
C1055       C  0.21506377  0.30230827  0.16463690     1.10800
O1056       O  0.21303369  0.32019245  0.28039650    -1.02700
O1057       O  0.28464271  0.17519903  0.20801181    -0.92400
C1058       C  0.23514642  0.33431054  0.29293239     1.22000
O1059       O  0.31165977  0.26496399  0.22554872    -1.03100
O1060       O  0.28698217  0.15454071  0.25668730    -0.90500
O1061       O  0.24481051  0.30213144  0.16808478    -0.90100
O1062       O  0.15136687  0.25334313  0.31018120    -0.90200
Mn1063     Mn  0.27683145  0.18803340  0.29135659     1.47900
O1064       O  0.22597451  0.21936478  0.19050377    -0.78600
C1065       C  0.15808818  0.26384125  0.23811582     1.15100
O1066       O  0.28308524  0.26031545  0.32803295    -0.77400
O1067       O  0.20716574  0.18269654  0.24577453    -0.77000
Mn1068     Mn  0.20617523  0.31266513  0.23499368     1.51100
O1069       O  0.28613784  0.33110939  0.21631675    -0.89300
O1070       O  0.23166881  0.17883414  0.28948163    -0.96900
O1071       O  0.19593276  0.30188921  0.18787064    -0.91900
C1072       C  0.21700574  0.16527526  0.26821614     1.12900
C1073       C  0.10015824  0.03856875  0.64589434    -0.20600
C1074       C  0.13182635  0.03033779  0.64167295    -0.07200
C1075       C  0.14370651  0.02536331  0.61076854     0.13700
C1076       C  0.12318752  0.02827087  0.58454023    -0.20700
C1077       C  0.09103729  0.03552170  0.58873820    -0.07200
C1078       C  0.07941537  0.04077956  0.62002648     0.13600
C1079       C  0.04503366  0.04777111  0.62686383    -0.24000
H1080       H  0.09141878  0.04234788  0.66977779     0.14900
H1081       H  0.13205148  0.02423378  0.56077575     0.15000
C1082       C  0.17805144  0.01731087  0.60552964    -0.24000
H1083       H  0.04036193  0.04960400  0.65272437     0.05200
H1084       H  0.02977056  0.02859786  0.61751476     0.08400
H1085       H  0.03815540  0.07073609  0.61633468     0.08400
H1086       H  0.18385084  0.99449167  0.61724643     0.08400
H1087       H  0.19325545  0.03628606  0.61564477     0.08400
H1088       H  0.18361705  0.01497256  0.57989356     0.05200
C1089       C  0.97575831  0.09992625  0.61650907    -0.20600
C1090       C  0.97307916  0.11746786  0.58823586    -0.07200
C1091       C  0.96781815  0.15035130  0.58981989     0.13700
C1092       C  0.96573089  0.16498977  0.61978061    -0.20700
C1093       C  0.96885240  0.14722404  0.64782464    -0.07200
C1094       C  0.97351285  0.11434364  0.64621118     0.13600
C1095       C  0.97623116  0.09450331  0.67582079    -0.24000
H1096       H  0.98021633  0.07473612  0.61534104     0.14900
H1097       H  0.96219445  0.19036572  0.62137422     0.15000
C1098       C  0.96503554  0.16981306  0.56008169    -0.24000
H1099       H  0.97955625  0.06901140  0.67019445     0.05200
H1100       H  0.95428229  0.09692669  0.69007197     0.08400
H1101       H  0.99682629  0.10249099  0.69020013     0.08400
H1102       H  0.94479225  0.16124930  0.54556792     0.08400
H1103       H  0.98713187  0.16769240  0.54607602     0.08400
H1104       H  0.96110519  0.19525020  0.56551502     0.05200
C1105       C  0.07391520  0.17366086  0.32333794    -0.20600
C1106       C  0.05151492  0.19785525  0.32724096    -0.07200
C1107       C  0.05861385  0.22888792  0.31787696     0.13700
C1108       C  0.08967834  0.23586726  0.30916975    -0.20700
C1109       C  0.11373277  0.21260305  0.31035600    -0.07200
C1110       C  0.10516536  0.18051850  0.31509700     0.13600
C1111       C  0.12853536  0.15348924  0.31339382    -0.24000
H1112       H  0.06756429  0.14958115  0.32963075     0.14900
H1113       H  0.09547280  0.26021791  0.30356231     0.15000
C1114       C  0.03437377  0.25505897  0.31955319    -0.24000
H1115       H  0.11679428  0.13015931  0.31650127     0.05200
H1116       H  0.14652763  0.15572517  0.33253828     0.08400
H1117       H  0.14021617  0.15329344  0.28982597     0.08400
H1118       H  0.02594580  0.25789221  0.34432813     0.08400
H1119       H  0.01398795  0.24928494  0.30385935     0.08400
H1120       H  0.04429673  0.27810003  0.31168165     0.05200
C1121       C  0.02312971  0.11292792  0.40271809    -0.20600
C1122       C  0.01436992  0.14137698  0.41683908    -0.07200
C1123       C  0.01402335  0.14445409  0.45007181     0.13700
C1124       C  0.02121433  0.11777194  0.46874542    -0.20700
C1125       C  0.02817964  0.08849306  0.45437314    -0.07200
C1126       C  0.03020316  0.08656303  0.42087011     0.13600
C1127       C  0.03934819  0.05670684  0.40371185    -0.24000
H1128       H  0.02400641  0.11126739  0.37701572     0.14900
H1129       H  0.01926614  0.11918800  0.49425684     0.15000
C1130       C  0.00558807  0.17543987  0.46546181    -0.24000
H1131       H  0.03785307  0.05922035  0.37750573     0.05200
H1132       H  0.02381866  0.03675403  0.41059489     0.08400
H1133       H  0.06428016  0.05140157  0.40970812     0.08400
H1134       H  0.98116548  0.18240809  0.45849258     0.08400
H1135       H  0.02242031  0.19405785  0.45768680     0.08400
H1136       H  0.00671540  0.17382930  0.49172665     0.05200
C1137       C  0.07556177  0.30278380  0.23074271    -0.20600
C1138       C  0.05459156  0.27696802  0.22789679    -0.07200
C1139       C  0.06810509  0.24618640  0.22822256     0.13700
C1140       C  0.10169365  0.24234938  0.23081772    -0.20700
C1141       C  0.12255443  0.26852062  0.23345870    -0.07200
C1142       C  0.10867902  0.29923313  0.23316984     0.13600
C1143       C  0.12843675  0.32901060  0.23417754    -0.24000
H1144       H  0.06585852  0.32655394  0.23050301     0.14900
H1145       H  0.11164139  0.21869674  0.23125173     0.15000
C1146       C  0.04735277  0.21743957  0.22516638    -0.24000
H1147       H  0.11381701  0.35071263  0.23134783     0.05200
H1148       H  0.14593553  0.32877159  0.21461159     0.08400
H1149       H  0.14070636  0.33099871  0.25734010     0.08400
H1150       H  0.03382419  0.21849206  0.20254071     0.08400
H1151       H  0.03057389  0.21653226  0.24537570     0.08400
H1152       H  0.06148845  0.19524621  0.22532019     0.05200
C1153       C  0.13999799  0.59126124  0.96964437    -0.20600
C1154       C  0.10838000  0.59140707  0.97971451    -0.07200
C1155       C  0.09308950  0.62075628  0.98618017     0.13700
C1156       C  0.11035065  0.64884390  0.98400517    -0.20700
C1157       C  0.14211933  0.64853109  0.97522872    -0.07200
C1158       C  0.15711112  0.61971393  0.96725042     0.13600
C1159       C  0.19134952  0.61899634  0.95734452    -0.24000
H1160       H  0.15142418  0.56887655  0.96442831     0.14900
H1161       H  0.09924769  0.67122902  0.98999928     0.15000
C1162       C  0.05879014  0.62289825  0.99617025    -0.24000
H1163       H  0.19949967  0.59450121  0.95227027     0.05200
H1164       H  0.20644054  0.62888245  0.97658567     0.08400
H1165       H  0.19451389  0.63336287  0.93552661     0.08400
H1166       H  0.05513766  0.61063023  0.01905453     0.08400
H1167       H  0.04319720  0.61241000  0.97782960     0.08400
H1168       H  0.05107887  0.64782804  0.99952565     0.05200
C1169       C  0.97428942  0.42439399  0.89705857    -0.20600
C1170       C  0.98262478  0.42176097  0.92915048    -0.07200
C1171       C  0.99524116  0.39269738  0.94064497     0.13700
C1172       C  0.99975533  0.36742636  0.91949272    -0.20700
C1173       C  0.99109126  0.37007033  0.88757330    -0.07200
C1174       C  0.97810850  0.39875794  0.87615650     0.13600
C1175       C  0.96825514  0.40229493  0.84193089    -0.24000
H1176       H  0.96438784  0.44648481  0.88845968     0.14900
H1177       H  0.00893468  0.34503130  0.92813232     0.15000
C1178       C  0.00291979  0.38758767  0.97526828    -0.24000
H1179       H  0.95924634  0.42648904  0.83682721     0.05200
H1180       H  0.94909140  0.38522270  0.83617257     0.08400
H1181       H  0.98887490  0.39772372  0.82628708     0.08400
H1182       H  0.98183469  0.39255283  0.99010721     0.08400
H1183       H  0.02269195  0.40314786  0.98258990     0.08400
H1184       H  0.01044525  0.36283565  0.98008361     0.05200
C1185       C  0.99002668  0.37540973  0.12230748    -0.20600
C1186       C  0.97364336  0.40231103  0.13296973    -0.07200
C1187       C  0.96226566  0.40325226  0.16437839     0.13700
C1188       C  0.96690877  0.37678911  0.18425176    -0.20700
C1189       C  0.98292879  0.34968986  0.17329732    -0.07200
C1190       C  0.99483590  0.34914109  0.14202636     0.13600
C1191       C  0.01135349  0.32032668  0.12884980    -0.24000
H1192       H  0.99828834  0.37466978  0.09796950     0.14900
H1193       H  0.95796484  0.37717670  0.20833086     0.15000
C1194       C  0.94508351  0.43197983  0.17657559    -0.24000
H1195       H  0.01757935  0.32337810  0.10344282     0.05200
H1196       H  0.99562551  0.29934655  0.13081675     0.08400
H1197       H  0.03365103  0.31587882  0.14214605     0.08400
H1198       H  0.92330990  0.43611014  0.16231737     0.08400
H1199       H  0.96070484  0.45304695  0.17473807     0.08400
H1200       H  0.93809491  0.42911879  0.20179519     0.05200
C1201       C  0.97727238  0.84182607  0.37655470    -0.20600
C1202       C  0.97996238  0.85908875  0.34829171    -0.07200
C1203       C  0.98457681  0.89202737  0.34905842     0.13700
C1204       C  0.98863998  0.90688640  0.37839560    -0.20700
C1205       C  0.98946771  0.88907667  0.40653686    -0.07200
C1206       C  0.98236536  0.85653294  0.40590571     0.13600
C1207       C  0.98217697  0.83717167  0.43589014    -0.24000
H1208       H  0.97366326  0.81641824  0.37548499     0.14900
H1209       H  0.99381148  0.93201911  0.37929164     0.15000
C1210       C  0.98670934  0.91108268  0.31894295    -0.24000
H1211       H  0.97642365  0.81194900  0.43107261     0.05200
H1212       H  0.96414293  0.84675212  0.45244521     0.08400
H1213       H  0.00584865  0.83817802  0.44743488     0.08400
H1214       H  0.96443060  0.90841322  0.30510410     0.08400
H1215       H  0.00691258  0.90263145  0.30441864     0.08400
H1216       H  0.99032891  0.93666688  0.32392232     0.05200
C1217       C  0.01249585  0.60425616  0.08113443    -0.20600
C1218       C  0.02004413  0.57522969  0.09563813    -0.07200
C1219       C  0.02573299  0.57417734  0.12855298     0.13700
C1220       C  0.02316120  0.60234247  0.14633772    -0.20700
C1221       C  0.01505664  0.63118019  0.13163951    -0.07200
C1222       C  0.00973116  0.63215163  0.09872552     0.13600
C1223       C  0.00183516  0.66274675  0.08209395    -0.24000
H1224       H  0.00923087  0.60505213  0.05563780     0.14900
H1225       H  0.02763609  0.60195293  0.17167977     0.15000
C1226       C  0.03498010  0.54366141  0.14450857    -0.24000
H1227       H  0.99868514  0.65930211  0.05613138     0.05200
H1228       H  0.02128031  0.68006473  0.08581038     0.08400
H1229       H  0.97950314  0.67265262  0.09178725     0.08400
H1230       H  0.05724911  0.53446193  0.13400273     0.08400
H1231       H  0.01597022  0.52581064  0.14117082     0.08400
H1232       H  0.03886693  0.54699701  0.17037760     0.05200
C1233       C  0.23020744  0.11230063  0.29302014    -0.20600
C1234       C  0.21330395  0.12905459  0.26937794    -0.07200
C1235       C  0.19479471  0.11045299  0.24795504     0.13700
C1236       C  0.19217920  0.07687657  0.25219141    -0.20700
C1237       C  0.20854133  0.06059641  0.27657016    -0.07200
C1238       C  0.22847490  0.07897050  0.29649632     0.13600
C1239       C  0.24818246  0.06327544  0.32191580    -0.24000
H1240       H  0.24523217  0.12542142  0.30925695     0.14900
H1241       H  0.17634535  0.06344432  0.23702451     0.15000
C1242       C  0.17718288  0.12578336  0.22093319    -0.24000
H1243       H  0.26340679  0.08056560  0.33471205     0.05200
H1244       H  0.26385450  0.04523861  0.31091965     0.08400
H1245       H  0.23269364  0.05166355  0.33963905     0.08400
H1246       H  0.19423664  0.13765102  0.20484968     0.08400
H1247       H  0.16008386  0.14343842  0.23027401     0.08400
H1248       H  0.16373617  0.10814443  0.20670822     0.05200
C1249       C  0.16515942  0.97580346  0.38114580    -0.20600
C1250       C  0.15444395  0.99470388  0.35572394    -0.07200
C1251       C  0.12397435  0.00835311  0.35721161     0.13700
C1252       C  0.10449502  0.00147221  0.38315477    -0.20700
C1253       C  0.11517177  0.98307473  0.40878211    -0.07200
C1254       C  0.14600581  0.97023273  0.40792470     0.13600
C1255       C  0.15831001  0.95025296  0.43484259    -0.24000
H1256       H  0.18849128  0.96514221  0.37987400     0.14900
H1257       H  0.08019585  0.00942612  0.38285302     0.15000
C1258       C  0.11123442  0.02890361  0.33084062    -0.24000
H1259       H  0.18299452  0.94225387  0.43052713     0.05200
H1260       H  0.14328578  0.92892432  0.43782537     0.08400
H1261       H  0.15797526  0.96422658  0.45716793     0.08400
H1262       H  0.11146496  0.01562373  0.30809103     0.08400
H1263       H  0.12598460  0.05053477  0.32858140     0.08400
H1264       H  0.08651079  0.03662133  0.33547631     0.05200
C1265       C  0.28479191  0.06231379  0.21763976    -0.20600
C1266       C  0.27285478  0.05919032  0.18687032    -0.07200
C1267       C  0.26168995  0.08596653  0.17037683     0.13700
C1268       C  0.26457002  0.11583792  0.18452551    -0.20700
C1269       C  0.27963972  0.11944511  0.21412141    -0.07200
C1270       C  0.28976468  0.09210433  0.23103018     0.13600
C1271       C  0.30875031  0.09368721  0.26150820    -0.24000
H1272       H  0.29400122  0.04151386  0.22965568     0.14900
H1273       H  0.25617924  0.13652633  0.17184520     0.15000
C1274       C  0.24766882  0.08301100  0.13757639    -0.24000
H1275       H  0.31704295  0.06994878  0.26927628     0.05200
H1276       H  0.29426926  0.10332566  0.28110443     0.08400
H1277       H  0.33007145  0.10866524  0.25800064     0.08400
H1278       H  0.22688574  0.06692416  0.13828088     0.08400
H1279       H  0.26549724  0.07329089  0.12089800     0.08400
H1280       H  0.23966976  0.10629930  0.12825187     0.05200
C1281       C  0.90883313  0.35890239  0.01518774    -0.20600
C1282       C  0.88954140  0.38484300  0.00688499    -0.07200
C1283       C  0.86128622  0.37984526  0.98983909     0.13700
C1284       C  0.85087854  0.34879022  0.98502511    -0.20700
C1285       C  0.86797003  0.32306133  0.99746540    -0.07200
C1286       C  0.89798731  0.32788443  0.01116806     0.13600
C1287       C  0.91795945  0.30045348  0.02226434    -0.24000
H1288       H  0.93139087  0.36305596  0.02686972     0.14900
H1289       H  0.82787211  0.34477158  0.97420096     0.15000
C1290       C  0.84121686  0.40717930  0.97864697    -0.24000
H1291       H  0.94113482  0.30851107  0.03188710     0.05200
H1292       H  0.92256996  0.28428106  0.00200229     0.08400
H1293       H  0.90553091  0.28722739  0.04124908     0.08400
H1294       H  0.85491511  0.42188654  0.96172873     0.08400
H1295       H  0.83407147  0.42196990  0.99921562     0.08400
H1296       H  0.81939464  0.39895054  0.96635914     0.05200
C1297       C  0.59314585  0.07725450  0.03298957    -0.20600
C1298       C  0.56448469  0.09317649  0.03878490    -0.07200
C1299       C  0.56480002  0.12568901  0.04621221     0.13700
C1300       C  0.59401542  0.14177896  0.04691920    -0.20700
C1301       C  0.62252196  0.12572792  0.04060555    -0.07200
C1302       C  0.62210199  0.09315693  0.03365802     0.13600
C1303       C  0.65221476  0.07520164  0.02689818    -0.24000
H1304       H  0.59273352  0.05204853  0.02802631     0.14900
H1305       H  0.59460273  0.16698838  0.05174810     0.15000
C1306       C  0.53451864  0.14310402  0.05327515    -0.24000
H1307       H  0.64757775  0.04970205  0.02232644     0.05200
H1308       H  0.66848215  0.07703831  0.04759181     0.08400
H1309       H  0.66397456  0.08521844  0.00563043     0.08400
H1310       H  0.52262497  0.13222707  0.07403195     0.08400
H1311       H  0.51836760  0.14184015  0.03247890     0.08400
H1312       H  0.53898949  0.16844613  0.05874784     0.05200
C1313       C  0.39237086  0.97589788  0.89680014    -0.20600
C1314       C  0.41491360  0.00013180  0.89417785    -0.07200
C1315       C  0.41508469  0.01964921  0.86707035     0.13700
C1316       C  0.38996078  0.01732795  0.84532575    -0.20700
C1317       C  0.36540839  0.99534135  0.84991170    -0.07200
C1318       C  0.36760722  0.97310641  0.87491999     0.13600
C1319       C  0.34267304  0.94811143  0.88042442    -0.24000
H1320       H  0.39243678  0.96097396  0.91774001     0.14900
H1321       H  0.38870456  0.03364049  0.82550835     0.15000
C1322       C  0.44075536  0.04393317  0.86223801    -0.24000
H1323       H  0.34757764  0.93401414  0.90214949     0.05200
H1324       H  0.34207832  0.93136931  0.86010964     0.08400
H1325       H  0.31909053  0.95940307  0.88328946     0.08400
H1326       H  0.46416330  0.03192659  0.86161318     0.08400
H1327       H  0.44071149  0.06147421  0.88185039     0.08400
H1328       H  0.43750692  0.05697958  0.83958244     0.05200
C1329       C  0.39679917  0.92676768  0.99895864    -0.20600
C1330       C  0.42747179  0.91466403  0.00399165    -0.07200
C1331       C  0.43141366  0.88214104  0.01043007     0.13700
C1332       C  0.40442692  0.86257485  0.01237434    -0.20700
C1333       C  0.37382024  0.87492257  0.00766920    -0.07200
C1334       C  0.37001516  0.90730085  0.00048903     0.13600
C1335       C  0.33767609  0.92145563  0.99490363    -0.24000
H1336       H  0.39380227  0.95187434  0.99443769     0.14900
H1337       H  0.40720418  0.83750805  0.01714471     0.15000
C1338       C  0.46393981  0.86827619  0.01508475    -0.24000
H1339       H  0.33899956  0.94728857  0.99008382     0.05200
H1340       H  0.32270734  0.91788927  0.01621726     0.08400
H1341       H  0.32624265  0.90992526  0.97413262     0.08400
H1342       H  0.47581080  0.87970271  0.03562587     0.08400
H1343       H  0.47837447  0.87228266  0.99348541     0.08400
H1344       H  0.46289414  0.84239206  0.01960916     0.05200
C1345       C  0.38365033  0.02117780  0.14512211    -0.20600
C1346       C  0.35675297  0.01496567  0.12634769    -0.07200
C1347       C  0.35924993  0.01254319  0.09330961     0.13700
C1348       C  0.38892154  0.01620686  0.07949387    -0.20700
C1349       C  0.41614113  0.02205048  0.09806627    -0.07200
C1350       C  0.41365419  0.02436055  0.13123820     0.13600
C1351       C  0.44257678  0.02888088  0.15174365    -0.24000
H1352       H  0.38122592  0.02267948  0.17068700     0.14900
H1353       H  0.39118651  0.01361556  0.05399623     0.15000
C1354       C  0.33072837  0.00565831  0.07280890    -0.24000
H1355       H  0.43639232  0.02965088  0.17732913     0.05200
H1356       H  0.45450632  0.05142111  0.14560313     0.08400
H1357       H  0.45936383  0.00898286  0.14796304     0.08400
H1358       H  0.31277101  0.02462211  0.07594776     0.08400
H1359       H  0.32022394  0.98257440  0.07970259     0.08400
H1360       H  0.33700236  0.00445704  0.04725517     0.05200
C1361       C  0.90483585  0.00316693  0.37846078    -0.20600
C1362       C  0.87258899  0.99757522  0.38319846    -0.07200
C1363       C  0.86161920  0.98860359  0.41351022     0.13700
C1364       C  0.88340310  0.98533489  0.43861178    -0.20700
C1365       C  0.91576868  0.99095731  0.43395624    -0.07200
C1366       C  0.92665408  0.99999132  0.40342425     0.13600
C1367       C  0.96117223  0.00629864  0.39688560    -0.24000
H1368       H  0.91297105  0.00982439  0.35501599     0.14900
H1369       H  0.87518341  0.97859960  0.46199358     0.15000
C1370       C  0.82691823  0.98285684  0.41936318    -0.24000
H1371       H  0.96551748  0.01103878  0.37134438     0.05200
H1372       H  0.97580487  0.98560962  0.40387477     0.08400
H1373       H  0.96897393  0.02749084  0.41024292     0.08400
H1374       H  0.81840941  0.96310970  0.40416200     0.08400
H1375       H  0.81322909  0.00460285  0.41366127     0.08400
H1376       H  0.82228405  0.97653224  0.44450514     0.05200
C1377       C  0.59857386  0.98075682  0.10243483    -0.20600
C1378       C  0.57109078  0.97581012  0.12054912    -0.07200
C1379       C  0.57383264  0.96987500  0.15334278     0.13700
C1380       C  0.60423086  0.96906185  0.16722909    -0.20700
C1381       C  0.63148639  0.97454031  0.14892738    -0.07200
C1382       C  0.62869659  0.97999126  0.11616806     0.13600
C1383       C  0.65747449  0.98518311  0.09575658    -0.24000
H1384       H  0.59623492  0.98611324  0.07737098     0.14900
H1385       H  0.60672760  0.96511823  0.19253474     0.15000
C1386       C  0.54489312  0.96570893  0.17365460    -0.24000
H1387       H  0.65097197  0.98879710  0.07044380     0.05200
H1388       H  0.67327309  0.96419682  0.09727045     0.08400
H1389       H  0.67056492  0.00644386  0.10399824     0.08400
H1390       H  0.53112085  0.94487322  0.16552978     0.08400
H1391       H  0.52971956  0.98713573  0.17204412     0.08400
H1392       H  0.55130460  0.96198034  0.19896718     0.05200
C1393       C  0.20740769  0.31539264  0.07611739    -0.20600
C1394       C  0.17679492  0.30407940  0.07090852    -0.07200
C1395       C  0.15969042  0.28985594  0.09570229     0.13700
C1396       C  0.17313578  0.28885390  0.12602823    -0.20700
C1397       C  0.20284986  0.30256976  0.13198574    -0.07200
C1398       C  0.22054856  0.31561438  0.10649308     0.13600
C1399       C  0.25207303  0.33208698  0.11099796    -0.24000
H1400       H  0.21986560  0.32691226  0.05683097     0.14900
H1401       H  0.16003760  0.27806702  0.14528548     0.15000
C1402       C  0.12709228  0.27637630  0.09020851    -0.24000
H1403       H  0.26052694  0.34327212  0.08873478     0.05200
H1404       H  0.27053988  0.31489698  0.11832443     0.08400
H1405       H  0.24984855  0.35110246  0.12909130     0.08400
H1406       H  0.12818810  0.25793193  0.07144995     0.08400
H1407       H  0.11053340  0.29533220  0.08265593     0.08400
H1408       H  0.11740320  0.26537776  0.11205559     0.05200
C1409       C  0.05748509  0.40574771  0.04093257    -0.20600
C1410       C  0.06957789  0.43675369  0.03972778    -0.07200
C1411       C  0.10223809  0.44181188  0.03556971     0.13700
C1412       C  0.12177282  0.41554951  0.02986163    -0.20700
C1413       C  0.10907414  0.38482374  0.02932329    -0.07200
C1414       C  0.07694417  0.37966719  0.03602515     0.13600
C1415       C  0.06300810  0.34680161  0.03704210    -0.24000
H1416       H  0.03230138  0.40204289  0.04432593     0.14900
H1417       H  0.14690038  0.41890404  0.02583332     0.15000
C1418       C  0.11616811  0.47459530  0.03722716    -0.24000
H1419       H  0.03716339  0.34728813  0.04193872     0.05200
H1420       H  0.07461750  0.33287430  0.05612564     0.08400
H1421       H  0.06669264  0.33477749  0.01389964     0.08400
H1422       H  0.11113425  0.48515174  0.06081509     0.08400
H1423       H  0.10574631  0.48998600  0.01866194     0.08400
H1424       H  0.14224457  0.47418795  0.03383914     0.05200
C1425       C  0.23423566  0.20288650  0.08483159    -0.20600
C1426       C  0.25788411  0.22009789  0.06862360    -0.07200
C1427       C  0.27617395  0.24164333  0.08684615     0.13700
C1428       C  0.27194771  0.24409535  0.12012097    -0.20700
C1429       C  0.24933489  0.22602564  0.13687083    -0.07200
C1430       C  0.22931853  0.20601969  0.11829220     0.13600
C1431       C  0.20335471  0.18708093  0.13358870    -0.24000
H1432       H  0.22040232  0.18580929  0.07150043     0.14900
H1433       H  0.28713877  0.26009141  0.13330650     0.15000
C1434       C  0.30106940  0.26176222  0.07113483    -0.24000
H1435       H  0.19030382  0.17243186  0.11597344     0.05200
H1436       H  0.18607147  0.20334025  0.14492183     0.08400
H1437       H  0.21350510  0.17095738  0.15174500     0.08400
H1438       H  0.28987909  0.27644663  0.05232910     0.08400
H1439       H  0.31958910  0.24654028  0.06037518     0.08400
H1440       H  0.31286704  0.27792436  0.08829857     0.05200
C1441       C  0.33819220  0.13474464  0.02822865    -0.20600
C1442       C  0.33919616  0.16201359  0.00937137    -0.07200
C1443       C  0.36639223  0.16770433  0.99049861     0.13700
C1444       C  0.39127867  0.14544353  0.99030472    -0.20700
C1445       C  0.38953935  0.11747773  0.00813482    -0.07200
C1446       C  0.36262942  0.11220286  0.02743119     0.13600
C1447       C  0.35871451  0.08204719  0.04599643    -0.24000
H1448       H  0.31739011  0.13029226  0.04256927     0.14900
H1449       H  0.41168147  0.14923192  0.97523065     0.15000
C1450       C  0.36947883  0.19714460  0.97060376    -0.24000
H1451       H  0.33558263  0.08113306  0.05844517     0.05200
H1452       H  0.37758750  0.08029342  0.06424920     0.08400
H1453       H  0.35997705  0.06139139  0.02973405     0.08400
H1454       H  0.36606483  0.21848396  0.98562726     0.08400
H1455       H  0.35166225  0.19680284  0.95124525     0.08400
H1456       H  0.39319695  0.19882296  0.95938824     0.05200
C1457       C  0.85906495  0.99179115  0.59293038    -0.20600
C1458       C  0.88242519  0.01523860  0.59655246    -0.07200
C1459       C  0.88135255  0.03572846  0.62313708     0.13700
C1460       C  0.85816412  0.03110306  0.64613130    -0.20700
C1461       C  0.83675363  0.00587284  0.64410003    -0.07200
C1462       C  0.83643162  0.98648487  0.61672662     0.13600
C1463       C  0.81262518  0.96021129  0.61255814    -0.24000
H1464       H  0.86021750  0.97599545  0.57267156     0.14900
H1465       H  0.85808436  0.04616630  0.66699160     0.15000
C1466       C  0.90611709  0.06080687  0.62904914    -0.24000
H1467       H  0.81482369  0.94868672  0.58896027     0.05200
H1468       H  0.78824437  0.96987994  0.61458133     0.08400
H1469       H  0.81636330  0.94168771  0.63084570     0.08400
H1470       H  0.90522939  0.07897909  0.61012334     0.08400
H1471       H  0.92991913  0.04969678  0.62989292     0.08400
H1472       H  0.90244465  0.07327906  0.65196529     0.05200
C1473       C  0.55358711  0.01177788  0.88834714    -0.20600
C1474       C  0.56356319  0.02157879  0.91861210    -0.07200
C1475       C  0.59481951  0.03306622  0.92285902     0.13700
C1476       C  0.61593310  0.03227510  0.89734093    -0.20700
C1477       C  0.60685524  0.01974319  0.86790778    -0.07200
C1478       C  0.57499322  0.01071872  0.86283646     0.13600
C1479       C  0.56362199  0.00000221  0.83068265    -0.24000
H1480       H  0.52967337  0.00289597  0.88529162     0.14900
H1481       H  0.64024605  0.03983038  0.90088075     0.15000
C1482       C  0.60669933  0.04403101  0.95485685    -0.24000
H1483       H  0.53780850  0.99486998  0.83067491     0.05200
H1484       H  0.57625777  0.97812107  0.82348417     0.08400
H1485       H  0.56811824  0.01890634  0.81295549     0.08400
H1486       H  0.60452532  0.02466321  0.97251573     0.08400
H1487       H  0.59274556  0.06479460  0.96285794     0.08400
H1488       H  0.63198151  0.05126873  0.95405888     0.05200
C1489       C  0.99996200  0.86606378  0.61773961    -0.20600
C1490       C  0.01612447  0.87380219  0.64587989    -0.07200
C1491       C  0.03456555  0.90162955  0.64747765     0.13700
C1492       C  0.03342707  0.92283670  0.62208594    -0.20700
C1493       C  0.01439410  0.91671764  0.59540229    -0.07200
C1494       C  0.99924293  0.88716296  0.59215350     0.13600
C1495       C  0.98110200  0.87874824  0.56247688    -0.24000
H1496       H  0.98682606  0.84404732  0.61630529     0.14900
H1497       H  0.04504273  0.94564221  0.62431709     0.15000
C1498       C  0.05332480  0.91037595  0.67674322    -0.24000
H1499       H  0.97038528  0.85479340  0.56411831     0.05200
H1500       H  0.99747646  0.87885853  0.54195775     0.08400
H1501       H  0.96173449  0.89600585  0.55817506     0.08400
H1502       H  0.07226402  0.89260605  0.68094001     0.08400
H1503       H  0.03743497  0.91139000  0.69766687     0.08400
H1504       H  0.06492462  0.93385019  0.67428676     0.05200
C1505       C  0.98174341  0.62628158  0.85009054    -0.20600
C1506       C  0.99760372  0.65413594  0.85904950    -0.07200
C1507       C  0.01940409  0.65358331  0.88456716     0.13700
C1508       C  0.02335440  0.62557516  0.90168579    -0.20700
C1509       C  0.00620037  0.59818724  0.89389556    -0.07200
C1510       C  0.98609788  0.59808525  0.86713996     0.13600
C1511       C  0.96874329  0.56849923  0.85735622    -0.24000
H1512       H  0.96589992  0.62664146  0.82978388     0.14900
H1513       H  0.03857159  0.62549837  0.92244851     0.15000
C1514       C  0.03729656  0.68277447  0.89498604    -0.24000
H1515       H  0.95431720  0.57236583  0.83560571     0.05200
H1516       H  0.95263353  0.56069549  0.87656862     0.08400
H1517       H  0.98613038  0.54938403  0.85244760     0.08400
H1518       H  0.02038813  0.70226589  0.90008024     0.08400
H1519       H  0.05400912  0.69030190  0.87619237     0.08400
H1520       H  0.05146930  0.67839838  0.91682370     0.05200
C1521       C  0.62804640  0.87392774  0.02264625    -0.20600
C1522       C  0.62337451  0.84780932  0.00280943    -0.07200
C1523       C  0.59322679  0.84227909  0.98924259     0.13700
C1524       C  0.56849584  0.86381679  0.99529199    -0.20700
C1525       C  0.57375309  0.89083550  0.01403243    -0.07200
C1526       C  0.60391191  0.89575958  0.02802020     0.13600
C1527       C  0.61138426  0.92481403  0.04741759    -0.24000
H1528       H  0.65120559  0.87783029  0.03320042     0.14900
H1529       H  0.54556193  0.86055540  0.98410459     0.15000
C1530       C  0.58716708  0.81380430  0.96861933    -0.24000
H1531       H  0.63659974  0.92551278  0.05501847     0.05200
H1532       H  0.59676588  0.92477610  0.06916769     0.08400
H1533       H  0.60660706  0.94651311  0.03332632     0.08400
H1534       H  0.59258467  0.79185996  0.98209041     0.08400
H1535       H  0.60234365  0.81485240  0.94720112     0.08400
H1536       H  0.56207224  0.81267777  0.96066571     0.05200
C1537       C  0.88255117  0.62627944  0.03858189    -0.20600
C1538       C  0.85562070  0.62123623  0.01983607    -0.07200
C1539       C  0.85217710  0.59231907  0.00321803     0.13700
C1540       C  0.87686294  0.56991898  0.00438772    -0.20700
C1541       C  0.90538701  0.57673630  0.02027955    -0.07200
C1542       C  0.90787806  0.60501430  0.03817847     0.13600
C1543       C  0.93839420  0.61473349  0.05398616    -0.24000
H1544       H  0.88500167  0.64843521  0.05139722     0.14900
H1545       H  0.87529861  0.54854905  0.99018875     0.15000
C1546       C  0.82306485  0.58536758  0.98366643    -0.24000
H1547       H  0.93641565  0.63822868  0.06565845     0.05200
H1548       H  0.95740963  0.61635652  0.03594644     0.08400
H1549       H  0.94496968  0.59731233  0.07251529     0.08400
H1550       H  0.82116350  0.60243779  0.96375224     0.08400
H1551       H  0.80164651  0.58714057  0.99877889     0.08400
H1552       H  0.82384609  0.56117329  0.97332302     0.05200
C1553       C  0.88486324  0.39918398  0.52931900    -0.20600
C1554       C  0.91343139  0.38230247  0.53224083    -0.07200
C1555       C  0.91279472  0.34937301  0.53742725     0.13700
C1556       C  0.88327744  0.33405537  0.53966672    -0.20700
C1557       C  0.85488457  0.35119872  0.53648869    -0.07200
C1558       C  0.85562181  0.38406458  0.53152933     0.13600
C1559       C  0.82554817  0.40304647  0.52797306    -0.24000
H1560       H  0.88560734  0.42438648  0.52446144     0.14900
H1561       H  0.88230132  0.30862414  0.54299447     0.15000
C1562       C  0.94299159  0.33053375  0.53941413    -0.24000
H1563       H  0.83049534  0.42860831  0.52426001     0.05200
H1564       H  0.81100975  0.40062758  0.54974690     0.08400
H1565       H  0.81176733  0.39431248  0.50724863     0.08400
H1566       H  0.95767922  0.33906956  0.55954480     0.08400
H1567       H  0.95656513  0.33325489  0.51706378     0.08400
H1568       H  0.93820913  0.30493464  0.54305819     0.05200
C1569       C  0.89458905  0.46093209  0.36214823    -0.20600
C1570       C  0.86564716  0.47005121  0.37586429    -0.07200
C1571       C  0.86453983  0.47869799  0.40808883     0.13700
C1572       C  0.89231144  0.47767736  0.42611142    -0.20700
C1573       C  0.92137811  0.46876135  0.41260773    -0.07200
C1574       C  0.92269644  0.46033911  0.38028284     0.13600
C1575       C  0.95358236  0.45113589  0.36513810    -0.24000
H1576       H  0.89525401  0.45489580  0.33715099     0.14900
H1577       H  0.89142356  0.48377191  0.45110645     0.15000
C1578       C  0.83402652  0.48893119  0.42350890    -0.24000
H1579       H  0.95046203  0.44527988  0.33961642     0.05200
H1580       H  0.96365849  0.43009607  0.37729717     0.08400
H1581       H  0.97061954  0.47106268  0.36704987     0.08400
H1582       H  0.81621476  0.46968765  0.42147885     0.08400
H1583       H  0.82479156  0.51053204  0.41165491     0.08400
H1584       H  0.83738605  0.49446401  0.44908407     0.05200
C1585       C  0.18896674  0.26836530  0.45359041    -0.20600
C1586       C  0.18811293  0.30094182  0.45867487    -0.07200
C1587       C  0.20071971  0.32177179  0.43594295     0.13700
C1588       C  0.20913483  0.30983798  0.40626260    -0.20700
C1589       C  0.20417602  0.27780343  0.39884420    -0.07200
C1590       C  0.19621819  0.25627681  0.42362229     0.13600
C1591       C  0.19222918  0.22107861  0.41863455    -0.24000
H1592       H  0.17968503  0.25270055  0.47171267     0.14900
H1593       H  0.21728106  0.32605004  0.38812417     0.15000
C1594       C  0.20365803  0.35674020  0.44247616    -0.24000
H1595       H  0.18603549  0.20860504  0.44096854     0.05200
H1596       H  0.21466590  0.21059917  0.40999655     0.08400
H1597       H  0.17280085  0.21649228  0.40140157     0.08400
H1598       H  0.21870779  0.36048036  0.46381203     0.08400
H1599       H  0.18004073  0.36734348  0.44661990     0.08400
H1600       H  0.21466192  0.36947927  0.42226825     0.05200
C1601       C  0.03775839  0.37911518  0.47224258    -0.20600
C1602       C  0.05094579  0.40777470  0.46152583    -0.07200
C1603       C  0.08374057  0.40924636  0.45447900     0.13700
C1604       C  0.10264288  0.38315691  0.46075121    -0.20700
C1605       C  0.09046896  0.35651134  0.47590037    -0.07200
C1606       C  0.05754797  0.35363584  0.48073565     0.13600
C1607       C  0.04361786  0.32456651  0.49585954    -0.24000
H1608       H  0.01273796  0.37824596  0.47788307     0.14900
H1609       H  0.12793073  0.38496861  0.45687496     0.15000
C1610       C  0.10014238  0.43927668  0.44421582    -0.24000
H1611       H  0.01738938  0.32611821  0.49735637     0.05200
H1612       H  0.05307000  0.32173062  0.52030257     0.08400
H1613       H  0.04979200  0.30334156  0.48159414     0.08400
H1614       H  0.09568207  0.45833878  0.46176459     0.08400
H1615       H  0.09184823  0.44649707  0.42036743     0.08400
H1616       H  0.12623291  0.43626765  0.44255637     0.05200
C1617       C  0.28217177  0.20080263  0.42874587    -0.20600
C1618       C  0.28773173  0.22748286  0.44814735    -0.07200
C1619       C  0.29021381  0.25715788  0.43252372     0.13700
C1620       C  0.28697280  0.25916191  0.39869906    -0.20700
C1621       C  0.28146571  0.23217535  0.37930401    -0.07200
C1622       C  0.27910519  0.20252272  0.39529037     0.13600
C1623       C  0.27378409  0.17193127  0.37749525    -0.24000
H1624       H  0.28059972  0.17780780  0.44004542     0.14900
H1625       H  0.28866682  0.28211562  0.38737952     0.15000
C1626       C  0.29741867  0.28656682  0.45130925    -0.24000
H1627       H  0.27460596  0.15101909  0.39344802     0.05200
H1628       H  0.29250164  0.16872485  0.35931674     0.08400
H1629       H  0.25004523  0.17204846  0.36608153     0.08400
H1630       H  0.32029560  0.28365407  0.46408719     0.08400
H1631       H  0.27825628  0.29085713  0.46876858     0.08400
H1632       H  0.29923980  0.30772231  0.43577636     0.05200
C1633       C  0.10176211  0.66784378  0.50201264    -0.20600
C1634       C  0.12802393  0.65521186  0.51823420    -0.07200
C1635       C  0.12478490  0.62696713  0.53563124     0.13700
C1636       C  0.09702683  0.60926672  0.53192319    -0.20700
C1637       C  0.07236037  0.61977294  0.51195282    -0.07200
C1638       C  0.07345425  0.65066568  0.49939350     0.13600
C1639       C  0.04577885  0.66428951  0.48133086    -0.24000
H1640       H  0.10405637  0.69032976  0.48983631     0.14900
H1641       H  0.09582015  0.58579891  0.54226895     0.15000
C1642       C  0.15132006  0.61423323  0.55598623    -0.24000
H1643       H  0.05073120  0.68876356  0.47309148     0.05200
H1644       H  0.02472718  0.66503200  0.49701575     0.08400
H1645       H  0.04017733  0.64961752  0.46021052     0.08400
H1646       H  0.15694829  0.63143802  0.57513495     0.08400
H1647       H  0.17274333  0.61013924  0.54133471     0.08400
H1648       H  0.14475195  0.59149994  0.56740442     0.05200
C1649       C  0.61063749  0.07639468  0.51614247    -0.20600
C1650       C  0.57791988  0.07872174  0.51074052    -0.07200
C1651       C  0.56431567  0.10884472  0.50400629     0.13700
C1652       C  0.58377407  0.13560541  0.50281788    -0.20700
C1653       C  0.61625318  0.13319682  0.50834938    -0.07200
C1654       C  0.62995226  0.10350159  0.51536227     0.13600
C1655       C  0.66483068  0.10064444  0.52241304    -0.24000
H1656       H  0.62092099  0.05348167  0.52149004     0.14900
H1657       H  0.57357866  0.15865656  0.49780832     0.15000
C1658       C  0.52924609  0.11322082  0.49822523    -0.24000
H1659       H  0.67177772  0.07575536  0.52735762     0.05200
H1660       H  0.67090910  0.11516991  0.54355884     0.08400
H1661       H  0.67870555  0.10915953  0.50177615     0.08400
H1662       H  0.51530907  0.10269099  0.51776918     0.08400
H1663       H  0.52244406  0.10191057  0.47550294     0.08400
H1664       H  0.52263393  0.13862493  0.49649027     0.05200
C1665       C  0.37536062  0.16041837  0.51594198    -0.20600
C1666       C  0.34299786  0.15771922  0.52225658    -0.07200
C1667       C  0.33048884  0.12803438  0.53132897     0.13700
C1668       C  0.35070181  0.10145512  0.53328623    -0.20700
C1669       C  0.38321923  0.10413884  0.52685724    -0.07200
C1670       C  0.39571327  0.13429052  0.51861910     0.13600
C1671       C  0.43059752  0.14019270  0.51353019    -0.24000
H1672       H  0.38495604  0.18328503  0.50928346     0.14900
H1673       H  0.34129474  0.07870785  0.54048233     0.15000
C1674       C  0.29581869  0.12449203  0.53880252    -0.24000
H1675       H  0.43423403  0.15101634  0.48984573     0.05200
H1676       H  0.44522814  0.11846244  0.51475641     0.08400
H1677       H  0.43942042  0.15690245  0.53190884     0.08400
H1678       H  0.28138091  0.13137022  0.51782707     0.08400
H1679       H  0.28953402  0.13997143  0.55914884     0.08400
H1680       H  0.28976540  0.09971935  0.54519182     0.05200
C1681       C  0.37553166  0.92527437  0.46315107    -0.20600
C1682       C  0.40270154  0.92120710  0.48212659    -0.07200
C1683       C  0.40749310  0.89211210  0.49813732     0.13700
C1684       C  0.38505803  0.86814713  0.49521281    -0.20700
C1685       C  0.35814987  0.87198076  0.47626537    -0.07200
C1686       C  0.35308082  0.90075646  0.45998305     0.13600
C1687       C  0.32396027  0.90566232  0.43985785    -0.24000
H1688       H  0.37243436  0.94722578  0.45019984     0.14900
H1689       H  0.38862459  0.84597173  0.50772133     0.15000
C1690       C  0.43695299  0.88554802  0.51731409    -0.24000
H1691       H  0.32344987  0.92970530  0.42919650     0.05200
H1692       H  0.30241070  0.90276908  0.45461249     0.08400
H1693       H  0.32349052  0.88804064  0.42029286     0.08400
H1694       H  0.43817201  0.90176946  0.53795233     0.08400
H1695       H  0.45811464  0.88873336  0.50211607     0.08400
H1696       H  0.43744760  0.86097521  0.52669822     0.05200
C1697       C  0.54891716  0.86648692  0.38236834    -0.20600
C1698       C  0.53389286  0.86968945  0.35297014    -0.07200
C1699       C  0.52469873  0.89997477  0.34213164     0.13700
C1700       C  0.52751776  0.92600431  0.36274188    -0.20700
C1701       C  0.53805650  0.92171606  0.39409213    -0.07200
C1702       C  0.55055067  0.89197127  0.40341882     0.13600
C1703       C  0.56260343  0.88600311  0.43659097    -0.24000
H1704       H  0.55676825  0.84324447  0.39003238     0.14900
H1705       H  0.51806678  0.94883404  0.35572304     0.15000
C1706       C  0.51117059  0.90464265  0.30935596    -0.24000
H1707       H  0.57027464  0.86106162  0.43989579     0.05200
H1708       H  0.54360151  0.89090932  0.45406304     0.08400
H1709       H  0.58338230  0.90129927  0.44150402     0.08400
H1710       H  0.48866284  0.89132225  0.30676361     0.08400
H1711       H  0.52839210  0.89610930  0.29141099     0.08400
H1712       H  0.50611870  0.93000096  0.30448744     0.05200
C1713       C  0.65808112  0.90906949  0.52292697    -0.20600
C1714       C  0.64358589  0.87935707  0.51860183    -0.07200
C1715       C  0.61090548  0.87759101  0.51218092     0.13700
C1716       C  0.59334210  0.90547473  0.51030382    -0.20700
C1717       C  0.60758293  0.93526387  0.51408999    -0.07200
C1718       C  0.64024788  0.93726835  0.52080322     0.13600
C1719       C  0.65599511  0.96887214  0.52558950    -0.24000
H1720       H  0.68337174  0.91018592  0.52732205     0.14900
H1721       H  0.56816369  0.90419827  0.50540465     0.15000
C1722       C  0.59459124  0.84627327  0.50679189    -0.24000
H1723       H  0.68170331  0.96621214  0.53064841     0.05200
H1724       H  0.64489700  0.98139441  0.54588876     0.08400
H1725       H  0.65327861  0.98356644  0.50394007     0.08400
H1726       H  0.59772697  0.83095469  0.52796872     0.08400
H1727       H  0.60488578  0.83428373  0.48575412     0.08400
H1728       H  0.56876936  0.84926576  0.50252148     0.05200
C1729       C  0.90161352  0.63898860  0.49865635    -0.20600
C1730       C  0.87261626  0.63239043  0.48361490    -0.07200
C1731       C  0.86854217  0.60333664  0.46745276     0.13700
C1732       C  0.89254023  0.58048699  0.46919539    -0.20700
C1733       C  0.92040918  0.58604889  0.48662532    -0.07200
C1734       C  0.92582677  0.61627714  0.49985130     0.13600
C1735       C  0.95615839  0.62433264  0.51682437    -0.24000
H1736       H  0.90501102  0.66160517  0.51039115     0.14900
H1737       H  0.88841691  0.55714678  0.45923093     0.15000
C1738       C  0.83807064  0.59530224  0.45048345    -0.24000
H1739       H  0.96684766  0.64571241  0.50592932     0.05200
H1740       H  0.97368344  0.60491854  0.51512695     0.08400
H1741       H  0.95128000  0.62911384  0.54225249     0.08400
H1742       H  0.83429454  0.61193912  0.43046953     0.08400
H1743       H  0.81785989  0.59694889  0.46720409     0.08400
H1744       H  0.83847631  0.57092511  0.44054944     0.05200
C1745       C  0.49332077  0.87399744  0.59936700    -0.20600
C1746       C  0.47908167  0.87605855  0.62906306    -0.07200
C1747       C  0.46699500  0.90536925  0.63980077     0.13700
C1748       C  0.47034711  0.93238426  0.62056186    -0.20700
C1749       C  0.48498556  0.93031588  0.59080276    -0.07200
C1750       C  0.49593348  0.90037235  0.57979262     0.13600
C1751       C  0.51162821  0.89508994  0.54807462    -0.24000
H1752       H  0.50265357  0.85141331  0.59135066     0.14900
H1753       H  0.46221587  0.95522594  0.62898963     0.15000
C1754       C  0.45174625  0.90839248  0.67185791    -0.24000
H1755       H  0.53715335  0.89005233  0.55196226     0.05200
H1756       H  0.50916091  0.91526831  0.53158423     0.08400
H1757       H  0.50095277  0.87423135  0.53611691     0.08400
H1758       H  0.46853020  0.90052628  0.69062129     0.08400
H1759       H  0.43006672  0.89357886  0.67255450     0.08400
H1760       H  0.44475862  0.93322658  0.67702141     0.05200
C1761       C  0.08981091  0.51465367  0.57842068    -0.20600
C1762       C  0.05913441  0.50536709  0.58712739    -0.07200
C1763       C  0.05358503  0.49394413  0.61805083     0.13700
C1764       C  0.07916407  0.49203564  0.63965559    -0.20700
C1765       C  0.10986812  0.50137234  0.63067255    -0.07200
C1766       C  0.11516199  0.51282849  0.59970973     0.13600
C1767       C  0.14779734  0.52218542  0.58863994    -0.24000
H1768       H  0.09401592  0.52276468  0.55438298     0.14900
H1769       H  0.07520617  0.48349689  0.66356086     0.15000
C1770       C  0.02091908  0.48371343  0.62788473    -0.24000
H1771       H  0.14784632  0.52905867  0.56319805     0.05200
H1772       H  0.16436325  0.50196442  0.59165950     0.08400
H1773       H  0.15654291  0.54272911  0.60254483     0.08400
H1774       H  0.01283971  0.46378927  0.61270015     0.08400
H1775       H  0.00411136  0.50378792  0.62521952     0.08400
H1776       H  0.02047856  0.47574265  0.65298753     0.05200
C1777       C  0.62242351  0.47778271  0.12207210    -0.20600
C1778       C  0.59125147  0.48686254  0.12836743    -0.07200
C1779       C  0.58321213  0.50058565  0.15795668     0.13700
C1780       C  0.60687149  0.50474618  0.18073555    -0.20700
C1781       C  0.63772699  0.49458087  0.17483961    -0.07200
C1782       C  0.64591868  0.48131129  0.14520732     0.13600
C1783       C  0.67936074  0.47108339  0.13793772    -0.24000
H1784       H  0.62813556  0.46736594  0.09927075     0.14900
H1785       H  0.60095381  0.51474492  0.20369063     0.15000
C1786       C  0.54989676  0.51003861  0.16670988    -0.24000
H1787       H  0.68167455  0.46246567  0.11313828     0.05200
H1788       H  0.68658589  0.45151515  0.15396489     0.08400
H1789       H  0.69575774  0.49139991  0.14116521     0.08400
H1790       H  0.54256433  0.49703119  0.18836662     0.08400
H1791       H  0.53233531  0.50469417  0.14792259     0.08400
H1792       H  0.54906902  0.53586345  0.17162290     0.05200
C1793       C  0.47103489  0.59844951  0.14120171    -0.20600
C1794       C  0.48139096  0.62874609  0.13332128    -0.07200
C1795       C  0.49148670  0.63551147  0.10214073     0.13700
C1796       C  0.49202424  0.61105505  0.07952822    -0.20700
C1797       C  0.48355851  0.58013291  0.08807604    -0.07200
C1798       C  0.47249289  0.57390566  0.11913473     0.13600
C1799       C  0.46318559  0.54109423  0.12942926    -0.24000
H1800       H  0.46344108  0.59361090  0.16528253     0.14900
H1801       H  0.50061343  0.61564213  0.05577778     0.15000
C1802       C  0.50207556  0.66829404  0.09301171    -0.24000
H1803       H  0.45582480  0.54033591  0.15469680     0.05200
H1804       H  0.48326804  0.52446148  0.12640834     0.08400
H1805       H  0.44293877  0.53321209  0.11474528     0.08400
H1806       H  0.52309800  0.67523331  0.10730584     0.08400
H1807       H  0.48260071  0.68542879  0.09737245     0.08400
H1808       H  0.50861798  0.66961139  0.06753713     0.05200
C1809       C  0.48849667  0.59424668  0.89287335    -0.20600
C1810       C  0.50445108  0.60886365  0.91831281    -0.07200
C1811       C  0.52320149  0.63582821  0.91277743     0.13700
C1812       C  0.52462498  0.64835151  0.88198854    -0.20700
C1813       C  0.50705181  0.63483342  0.85703138    -0.07200
C1814       C  0.48897393  0.60731529  0.86243845     0.13600
C1815       C  0.47020385  0.59162813  0.83630945    -0.24000
H1816       H  0.47461007  0.57309623  0.89720902     0.14900
H1817       H  0.53829783  0.66963982  0.87768334     0.15000
C1818       C  0.54063580  0.65193421  0.93950813    -0.24000
H1819       H  0.45908430  0.56931040  0.84453485     0.05200
H1820       H  0.48602118  0.58584918  0.81612600     0.08400
H1821       H  0.45093484  0.60751565  0.82810236     0.08400
H1822       H  0.55798468  0.63526420  0.95020166     0.08400
H1823       H  0.52353429  0.65958625  0.95795966     0.08400
H1824       H  0.55372029  0.67315270  0.93116896     0.05200
C1825       C  0.39583571  0.53817677  0.89604819    -0.20600
C1826       C  0.38273202  0.54035808  0.92655015    -0.07200
C1827       C  0.34971959  0.54339182  0.93023790     0.13700
C1828       C  0.33028401  0.54271911  0.90301275    -0.20700
C1829       C  0.34357740  0.53922664  0.87265896    -0.07200
C1830       C  0.37663088  0.53733837  0.86908287     0.13600
C1831       C  0.39152503  0.53308842  0.83687948    -0.24000
H1832       H  0.42130695  0.53592731  0.89351514     0.14900
H1833       H  0.30475793  0.54402298  0.90541642     0.15000
C1834       C  0.33532216  0.54673362  0.96268445    -0.24000
H1835       H  0.41767977  0.53089613  0.83850712     0.05200
H1836       H  0.38579693  0.55375189  0.82161851     0.08400
H1837       H  0.38233984  0.51118192  0.82552663     0.08400
H1838       H  0.34482685  0.56828582  0.97444113     0.08400
H1839       H  0.34124343  0.52576444  0.97742240     0.08400
H1840       H  0.30911974  0.54884874  0.96137958     0.05200
C1841       C  0.45752561  0.40679064  0.86781884    -0.20600
C1842       C  0.45970050  0.37450074  0.87454442    -0.07200
C1843       C  0.46263846  0.36416367  0.90631662     0.13700
C1844       C  0.46332914  0.38664120  0.93091209    -0.20700
C1845       C  0.46264597  0.41908374  0.92405245    -0.07200
C1846       C  0.45967155  0.42931260  0.89210368     0.13600
C1847       C  0.46038711  0.46398126  0.88334418    -0.24000
H1848       H  0.45590660  0.41441831  0.84329523     0.14900
H1849       H  0.46604898  0.37906024  0.95534182     0.15000
C1850       C  0.46582715  0.32950831  0.91411148    -0.24000
H1851       H  0.45921438  0.46753389  0.85724837     0.05200
H1852       H  0.48268400  0.47495287  0.89206264     0.08400
H1853       H  0.43982978  0.47642014  0.89390088     0.08400
H1854       H  0.48758301  0.31978880  0.90301923     0.08400
H1855       H  0.44487885  0.31643634  0.90496412     0.08400
H1856       H  0.46751855  0.32549224  0.94011205     0.05200
C1857       C  0.52278723  0.14303415  0.64126169    -0.20600
C1858       C  0.50943174  0.13985414  0.67124564    -0.07200
C1859       C  0.49813889  0.11021712  0.68172151     0.13700
C1860       C  0.49742786  0.08484808  0.66032342    -0.20700
C1861       C  0.50669126  0.08937633  0.62879769    -0.07200
C1862       C  0.52071369  0.11842095  0.61938690     0.13600
C1863       C  0.53009144  0.12502412  0.58549201    -0.24000
H1864       H  0.53147869  0.16600899  0.63376314     0.14900
H1865       H  0.48681925  0.06252699  0.66720957     0.15000
C1866       C  0.48581124  0.10579792  0.71491992    -0.24000
H1867       H  0.53904993  0.14955155  0.58236177     0.05200
H1868       H  0.50918068  0.12217162  0.56973788     0.08400
H1869       H  0.54926021  0.10876482  0.57801633     0.08400
H1870       H  0.46497042  0.12126875  0.71899246     0.08400
H1871       H  0.50469653  0.11188954  0.73229191     0.08400
H1872       H  0.47842194  0.08093169  0.71924160     0.05200
C1873       C  0.63300804  0.51049630  0.89855216    -0.20600
C1874       C  0.61936157  0.50108297  0.86965577    -0.07200
C1875       C  0.58684326  0.49403849  0.86785174     0.13700
C1876       C  0.56840593  0.49701764  0.89517198    -0.20700
C1877       C  0.58218490  0.50537287  0.92445697    -0.07200
C1878       C  0.61480139  0.51216594  0.92623651     0.13600
C1879       C  0.63047984  0.51993044  0.95744477    -0.24000
H1880       H  0.65816935  0.51558914  0.89959086     0.14900
H1881       H  0.54324212  0.49198716  0.89395981     0.15000
C1882       C  0.57171535  0.48328013  0.83725805    -0.24000
H1883       H  0.65632408  0.52397195  0.95466748     0.05200
H1884       H  0.62714058  0.49997631  0.97425848     0.08400
H1885       H  0.61983346  0.54170311  0.96763040     0.08400
H1886       H  0.58286463  0.46083916  0.82926960     0.08400
H1887       H  0.57496366  0.50165361  0.81872660     0.08400
H1888       H  0.54590923  0.47897917  0.84007829     0.05200
C1889       C  0.85326455  0.47834391  0.63747296    -0.20600
C1890       C  0.85855848  0.49813343  0.66349582    -0.07200
C1891       C  0.88835250  0.51283466  0.66761165     0.13700
C1892       C  0.91203785  0.50800335  0.64470097    -0.20700
C1893       C  0.90614747  0.48922792  0.61781188    -0.07200
C1894       C  0.87637590  0.47413973  0.61429561     0.13600
C1895       C  0.86817650  0.45475042  0.58542013    -0.24000
H1896       H  0.83031671  0.46711001  0.63461615     0.14900
H1897       H  0.93466831  0.51992647  0.64697766     0.15000
C1898       C  0.89517255  0.53334297  0.69606225    -0.24000
H1899       H  0.84326837  0.44628863  0.58589265     0.05200
H1900       H  0.88364414  0.43360465  0.58455880     0.08400
H1901       H  0.87127416  0.46913480  0.56360976     0.08400
H1902       H  0.89159638  0.51946879  0.71813462     0.08400
H1903       H  0.87911155  0.55413826  0.69611002     0.08400
H1904       H  0.91994265  0.54221856  0.69597392     0.05200
C1905       C  0.25144903  0.40991313  0.21046126    -0.20600
C1906       C  0.27488189  0.38613551  0.20754031    -0.07200
C1907       C  0.30308732  0.39312706  0.19088531     0.13700
C1908       C  0.30543084  0.42213302  0.17516313    -0.20700
C1909       C  0.28013222  0.44374717  0.17461429    -0.07200
C1910       C  0.25343241  0.43838747  0.19361419     0.13600
C1911       C  0.22610646  0.46134339  0.19429181    -0.24000
H1912       H  0.23015706  0.40527384  0.22398164     0.14900
H1913       H  0.32647071  0.42712761  0.16134007     0.15000
C1914       C  0.32996453  0.36978553  0.18739370    -0.24000
H1915       H  0.20654464  0.45274795  0.20960033     0.05200
H1916       H  0.21655203  0.46463593  0.16992053     0.08400
H1917       H  0.23418952  0.48449960  0.20379617     0.08400
H1918       H  0.32194423  0.34875183  0.17373188     0.08400
H1919       H  0.33871340  0.36250544  0.21117713     0.08400
H1920       H  0.35031032  0.38011591  0.17434447     0.05200
C1921       C  0.36199159  0.46797424  0.03612251    -0.20600
C1922       C  0.38980094  0.46464130  0.05441782    -0.07200
C1923       C  0.38790730  0.46670829  0.08796681     0.13700
C1924       C  0.35884861  0.47174806  0.10204687    -0.20700
C1925       C  0.33170438  0.47713008  0.08402672    -0.07200
C1926       C  0.33278871  0.47497269  0.05073512     0.13600
C1927       C  0.30368468  0.48092204  0.03100516    -0.24000
H1928       H  0.36350730  0.46724666  0.01055347     0.14900
H1929       H  0.35770941  0.47357257  0.12775737     0.15000
C1930       C  0.41587346  0.46679390  0.11028883    -0.24000
H1931       H  0.30868271  0.47844228  0.00525699     0.05200
H1932       H  0.29489772  0.50532027  0.03541553     0.08400
H1933       H  0.28494302  0.46368166  0.03746795     0.08400
H1934       H  0.41596383  0.48921823  0.12389356     0.08400
H1935       H  0.43910604  0.46441256  0.09868852     0.08400
H1936       H  0.41284812  0.44755439  0.12778856     0.05200
C1937       C  0.25580262  0.39184032  0.29160826    -0.20600
C1938       C  0.23180192  0.36980159  0.29974554    -0.07200
C1939       C  0.20280587  0.38262207  0.31088969     0.13700
C1940       C  0.19823109  0.41570185  0.31242351    -0.20700
C1941       C  0.22164302  0.43817295  0.30392687    -0.07200
C1942       C  0.25109368  0.42552022  0.29338773     0.13600
C1943       C  0.27758328  0.44720766  0.28378986    -0.24000
H1944       H  0.27807557  0.38272275  0.28275088     0.14900
H1945       H  0.17540497  0.42390779  0.32065999     0.15000
C1946       C  0.17641743  0.36165822  0.32273096    -0.24000
H1947       H  0.29890990  0.43373490  0.27634131     0.05200
H1948       H  0.28431534  0.46261140  0.30408533     0.08400
H1949       H  0.26989361  0.46209762  0.26346996     0.08400
H1950       H  0.18525501  0.34702084  0.34265376     0.08400
H1951       H  0.16724296  0.34631762  0.30352317     0.08400
H1952       H  0.15599592  0.37554937  0.33177245     0.05200
C1953       C  0.14885053  0.51353916  0.38189947    -0.20600
C1954       C  0.14620991  0.51380046  0.34890191    -0.07200
C1955       C  0.11615684  0.51770707  0.33456775     0.13700
C1956       C  0.08917747  0.52142954  0.35385229    -0.20700
C1957       C  0.09173327  0.52077867  0.38709047    -0.07200
C1958       C  0.12215336  0.51664603  0.40122390     0.13600
C1959       C  0.12771801  0.51576627  0.43664208    -0.24000
H1960       H  0.17201595  0.51052633  0.39273758     0.14900
H1961       H  0.06610533  0.52491879  0.34304124     0.15000
C1962       C  0.11267900  0.51770582  0.29900769    -0.24000
H1963       H  0.14131826  0.49416358  0.44294245     0.05200
H1964       H  0.10564561  0.51541441  0.45071136     0.08400
H1965       H  0.14183200  0.53677313  0.44386431     0.08400
H1966       H  0.12125290  0.49481943  0.28927077     0.08400
H1967       H  0.12684931  0.53730473  0.28873796     0.08400
H1968       H  0.08760065  0.52090116  0.29159011     0.05200
C1969       C  0.38543666  0.28496174  0.26778198    -0.20600
C1970       C  0.36477819  0.27430466  0.24331509    -0.07200
C1971       C  0.37945783  0.26120066  0.21575983     0.13700
C1972       C  0.41266745  0.25792872  0.21432059    -0.20700
C1973       C  0.43337087  0.27087045  0.23717123    -0.07200
C1974       C  0.41925042  0.28449033  0.26446285     0.13600
C1975       C  0.43977180  0.29976008  0.28932207    -0.24000
H1976       H  0.37515621  0.29497367  0.28905994     0.14900
H1977       H  0.42296574  0.24786424  0.19302391     0.15000
C1978       C  0.36101735  0.25224378  0.18621418    -0.24000
H1979       H  0.42544118  0.30954959  0.30908854     0.05200
H1980       H  0.45349899  0.31944128  0.27861059     0.08400
H1981       H  0.45646564  0.28196678  0.29922561     0.08400
H1982       H  0.34715585  0.27292575  0.17764369     0.08400
H1983       H  0.34510272  0.23199251  0.19087432     0.08400
H1984       H  0.37674656  0.24490765  0.16645186     0.05200
C1985       C  0.46542629  0.34165893  0.14887138    -0.20600
C1986       C  0.48922748  0.31855050  0.14994549    -0.07200
C1987       C  0.51036685  0.31580562  0.12404938     0.13700
C1988       C  0.50871982  0.33809937  0.09917761    -0.20700
C1989       C  0.48717294  0.36349944  0.10026294    -0.07200
C1990       C  0.46460355  0.36448972  0.12495420     0.13600
C1991       C  0.44190343  0.39166940  0.12836304    -0.24000
H1992       H  0.44892937  0.34367423  0.16843475     0.14900
H1993       H  0.52624021  0.33753631  0.08044709     0.15000
C1994       C  0.53486353  0.28991237  0.12264969    -0.24000
H1995       H  0.42686075  0.38944600  0.14982511     0.05200
H1996       H  0.42587434  0.39278626  0.10750376     0.08400
H1997       H  0.45563423  0.41396461  0.13055115     0.08400
H1998       H  0.52318821  0.26648625  0.12504838     0.08400
H1999       H  0.55253577  0.29299633  0.14188686     0.08400
H2000       H  0.54788741  0.29017927  0.09979361     0.05200
C2001       C  0.42512080  0.16029436  0.26419936    -0.20600
C2002       C  0.43606290  0.16273167  0.29520830    -0.07200
C2003       C  0.41911484  0.18007349  0.31811484     0.13700
C2004       C  0.39000543  0.19331491  0.30969553    -0.20700
C2005       C  0.37741058  0.18860099  0.27926060    -0.07200
C2006       C  0.39562152  0.17247957  0.25580790     0.13600
C2007       C  0.38373052  0.16564118  0.22261328    -0.24000
H2008       H  0.43879139  0.14682865  0.24709683     0.14900
H2009       H  0.37638125  0.20605565  0.32734921     0.15000
C2010       C  0.43121909  0.18370087  0.35159174    -0.24000
H2011       H  0.40075021  0.15110731  0.20878442     0.05200
H2012       H  0.38038819  0.18807395  0.20938850     0.08400
H2013       H  0.36113650  0.15222088  0.22363106     0.08400
H2014       H  0.45520114  0.19448902  0.35133977     0.08400
H2015       H  0.43235372  0.16020093  0.36320382     0.08400
H2016       H  0.41548659  0.19904961  0.36604901     0.05200
C2017       C  0.46816456  0.03146917  0.38883989    -0.20600
C2018       C  0.46105732  0.04884197  0.41647250    -0.07200
C2019       C  0.45918712  0.08231790  0.41502655     0.13700
C2020       C  0.46710965  0.09754049  0.38709145    -0.20700
C2021       C  0.47616139  0.08060028  0.36025217    -0.07200
C2022       C  0.47592072  0.04725334  0.36046375     0.13600
C2023       C  0.48473287  0.02871239  0.33133682    -0.24000
H2024       H  0.47027222  0.00592232  0.39027104     0.14900
H2025       H  0.46700783  0.12320227  0.38633845     0.15000
C2026       C  0.45102050  0.10262503  0.44334715    -0.24000
H2027       H  0.48362878  0.00278917  0.33567073     0.05200
H2028       H  0.50924659  0.03483143  0.32410270     0.08400
H2029       H  0.46815628  0.03455846  0.31167371     0.08400
H2030       H  0.45269594  0.12830124  0.43791511     0.08400
H2031       H  0.46747759  0.09774193  0.46328126     0.08400
H2032       H  0.42630630  0.09801285  0.45076977     0.05200
C2033       C  0.23118635  0.88465887  0.28910899    -0.20600
C2034       C  0.21881747  0.87051726  0.26128552    -0.07200
C2035       C  0.20406753  0.89142507  0.23907184     0.13700
C2036       C  0.20117132  0.92459379  0.24583304    -0.20700
C2037       C  0.21313421  0.93824180  0.27406879    -0.07200
C2038       C  0.22900956  0.91752873  0.29545641     0.13600
C2039       C  0.24383269  0.92936516  0.32590532    -0.24000
H2040       H  0.24312745  0.86989153  0.30645404     0.14900
H2041       H  0.18814954  0.93966881  0.22958541     0.15000
C2042       C  0.19048613  0.87892412  0.20850770    -0.24000
H2043       H  0.26906910  0.92202518  0.32696849     0.05200
H2044       H  0.23120848  0.91901929  0.34651180     0.08400
H2045       H  0.24338555  0.95553043  0.32804664     0.08400
H2046       H  0.17197595  0.86098759  0.21365358     0.08400
H2047       H  0.20960012  0.86805639  0.19410148     0.08400
H2048       H  0.17945121  0.89803613  0.19413244     0.05200
C2049       C  0.28555152  0.88839418  0.18110283    -0.20600
C2050       C  0.29650066  0.88501510  0.21244822    -0.07200
C2051       C  0.30239793  0.91243265  0.23108643     0.13700
C2052       C  0.29834686  0.94230772  0.21734925    -0.20700
C2053       C  0.28903685  0.94539692  0.18563672    -0.07200
C2054       C  0.28190871  0.91836401  0.16743198     0.13600
C2055       C  0.27048417  0.92124335  0.13364529    -0.24000
H2056       H  0.27998303  0.86750718  0.16717174     0.14900
H2057       H  0.30420772  0.96339983  0.23085918     0.15000
C2058       C  0.31472621  0.91071131  0.26473138    -0.24000
H2059       H  0.26516658  0.89772725  0.12305860     0.05200
H2060       H  0.28885773  0.93280977  0.11887862     0.08400
H2061       H  0.24849204  0.93568040  0.13295740     0.08400
H2062       H  0.33685201  0.89649059  0.26549794     0.08400
H2063       H  0.29678006  0.89993543  0.28047173     0.08400
H2064       H  0.32014987  0.93454557  0.27450373     0.05200
C2065       C  0.09415533  0.69061680  0.19473903    -0.20600
C2066       C  0.07109334  0.71372735  0.18941448    -0.07200
C2067       C  0.08029044  0.74597845  0.19153140     0.13700
C2068       C  0.11259447  0.75392893  0.19774514    -0.20700
C2069       C  0.13590873  0.73031501  0.20216137    -0.07200
C2070       C  0.12580110  0.69801187  0.20080676     0.13600
C2071       C  0.14776021  0.67017669  0.20538755    -0.24000
H2072       H  0.08724758  0.66588735  0.19389707     0.14900
H2073       H  0.11949625  0.77856739  0.19959308     0.15000
C2074       C  0.05636369  0.77187052  0.18671209    -0.24000
H2075       H  0.13597819  0.64709605  0.20079138     0.05200
H2076       H  0.15608923  0.66936499  0.23037845     0.08400
H2077       H  0.16780589  0.67182085  0.18856746     0.08400
H2078       H  0.03756758  0.77001964  0.20497789     0.08400
H2079       H  0.04555404  0.76971697  0.16274670     0.08400
H2080       H  0.06736687  0.79567421  0.18878796     0.05200
C2081       C  0.10771881  0.81369235  0.27925167    -0.20600
C2082       C  0.11446602  0.78136287  0.28366903    -0.07200
C2083       C  0.08863526  0.75951987  0.28441232     0.13700
C2084       C  0.05744665  0.77081037  0.28194119    -0.20700
C2085       C  0.05094499  0.80310502  0.27913442    -0.07200
C2086       C  0.07639287  0.82479392  0.27696081     0.13600
C2087       C  0.07064714  0.85965740  0.27168602    -0.24000
H2088       H  0.12703146  0.83052535  0.27776395     0.14900
H2089       H  0.03780857  0.75439337  0.28396071     0.15000
C2090       C  0.09297673  0.72428381  0.28883168    -0.24000
H2091       H  0.09317550  0.87281979  0.26838628     0.05200
H2092       H  0.05840834  0.87024621  0.29236100     0.08400
H2093       H  0.05596145  0.86302004  0.25002866     0.08400
H2094       H  0.10597943  0.71953450  0.31129218     0.08400
H2095       H  0.10592967  0.71413499  0.26833208     0.08400
H2096       H  0.06999008  0.71158364  0.29024706     0.05200
C2097       C  0.31910192  0.80374346  0.08892734    -0.20600
C2098       C  0.29636481  0.80982814  0.06541404    -0.07200
C2099       C  0.26394145  0.80696947  0.07380163     0.13700
C2100       C  0.25533817  0.80002153  0.10570062    -0.20700
C2101       C  0.27833512  0.79432509  0.12937061    -0.07200
C2102       C  0.31094390  0.79532173  0.12007211     0.13600
C2103       C  0.33808448  0.78702974  0.14214427    -0.24000
H2104       H  0.34394776  0.80515601  0.08262190     0.14900
H2105       H  0.23053019  0.79808036  0.11190958     0.15000
C2106       C  0.23835061  0.81154649  0.04936414    -0.24000
H2107       H  0.36158162  0.79051392  0.13089267     0.05200
H2108       H  0.33682746  0.76163577  0.14876580     0.08400
H2109       H  0.33760533  0.80223765  0.16352952     0.08400
H2110       H  0.24087768  0.79352841  0.03033652     0.08400
H2111       H  0.24015220  0.83560616  0.03894390     0.08400
H2112       H  0.21437835  0.80885525  0.05980592     0.05200
C2113       C  0.22945999  0.72263761  0.04816812    -0.20600
C2114       C  0.19680747  0.72329236  0.04277639    -0.07200
C2115       C  0.17598482  0.72386971  0.06894459     0.13700
C2116       C  0.18824693  0.72096414  0.09985030    -0.20700
C2117       C  0.22093148  0.71720495  0.10540406    -0.07200
C2118       C  0.24195362  0.71937664  0.07894569     0.13600
C2119       C  0.27752391  0.71671876  0.08202907    -0.24000
H2120       H  0.24524566  0.72225287  0.02791817     0.14900
H2121       H  0.17199251  0.72077716  0.11970139     0.15000
C2122       C  0.14071795  0.72751464  0.06427513    -0.24000
H2123       H  0.28958266  0.71855128  0.05871708     0.05200
H2124       H  0.28399235  0.69343521  0.09241957     0.08400
H2125       H  0.28688860  0.73615220  0.09700544     0.08400
H2126       H  0.13079663  0.70677321  0.05152613     0.08400
H2127       H  0.13582780  0.74932692  0.05038698     0.08400
H2128       H  0.12810675  0.72950009  0.08727979     0.05200
C2129       C  0.38513889  0.72760504  0.20505468    -0.20600
C2130       C  0.36944497  0.71196927  0.23006699    -0.07200
C2131       C  0.38649159  0.68900090  0.24777556     0.13700
C2132       C  0.41790332  0.68143734  0.23897743    -0.20700
C2133       C  0.43248948  0.69612227  0.21294198    -0.07200
C2134       C  0.41605441  0.71981123  0.19615983     0.13600
C2135       C  0.43091306  0.73648080  0.16826211    -0.24000
H2136       H  0.37297151  0.74589281  0.19177501     0.14900
H2137       H  0.43055286  0.66283753  0.25141197     0.15000
C2138       C  0.37150231  0.67142188  0.27489933    -0.24000
H2139       H  0.41498071  0.75486211  0.15813948     0.05200
H2140       H  0.43626453  0.71916321  0.14918632     0.08400
H2141       H  0.45322199  0.74820561  0.17588151     0.08400
H2142       H  0.35036735  0.65826686  0.26630606     0.08400
H2143       H  0.36444236  0.68839107  0.29373456     0.08400
H2144       H  0.38810654  0.65401489  0.28563919     0.05200
C2145       C  0.41157698  0.78070849  0.27161544    -0.20600
C2146       C  0.38796898  0.79584350  0.28987735    -0.07200
C2147       C  0.39766173  0.81157509  0.31798305     0.13700
C2148       C  0.43026410  0.81299805  0.32584444    -0.20700
C2149       C  0.45389664  0.79885533  0.30676530    -0.07200
C2150       C  0.44400746  0.78182971  0.27958293     0.13600
C2151       C  0.46743769  0.76602883  0.25780344    -0.24000
H2152       H  0.40476670  0.76840212  0.25020186     0.14900
H2153       H  0.43740857  0.82587670  0.34694225     0.15000
C2154       C  0.37414250  0.82790403  0.33929061    -0.24000
H2155       H  0.45570309  0.75530981  0.23684989     0.05200
H2156       H  0.48003283  0.74678433  0.27059596     0.08400
H2157       H  0.48468494  0.78372299  0.24891642     0.08400
H2158       H  0.35710307  0.81032866  0.34884541     0.08400
H2159       H  0.36118488  0.84643988  0.32579136     0.08400
H2160       H  0.38591561  0.83955974  0.35981799     0.05200
C2161       C  0.25505604  0.61343378  0.29984742    -0.20600
C2162       C  0.23861190  0.62713165  0.27388423    -0.07200
C2163       C  0.22035634  0.60551583  0.25474224     0.13700
C2164       C  0.21841859  0.57294250  0.26263999    -0.20700
C2165       C  0.23314636  0.55998827  0.28944945    -0.07200
C2166       C  0.25190596  0.58078581  0.30816916     0.13600
C2167       C  0.26780721  0.56862706  0.33774531    -0.24000
H2168       H  0.26942366  0.62867727  0.31474984     0.14900
H2169       H  0.20313677  0.55765388  0.24862789     0.15000
C2170       C  0.20172088  0.61453524  0.22566733    -0.24000
H2171       H  0.28170924  0.58743735  0.34986409     0.05200
H2172       H  0.28416241  0.54900190  0.33149183     0.08400
H2173       H  0.24972979  0.55973761  0.35460957     0.08400
H2174       H  0.21063125  0.60095805  0.20493407     0.08400
H2175       H  0.20298927  0.63955268  0.21958249     0.08400
H2176       H  0.17636187  0.60857037  0.22926738     0.05200
C2177       C  0.28097291  0.61349741  0.14315237    -0.20600
C2178       C  0.28788647  0.61943579  0.17516375    -0.07200
C2179       C  0.29562844  0.59410508  0.19548149     0.13700
C2180       C  0.29561344  0.56318283  0.18329466    -0.20700
C2181       C  0.28787277  0.55703225  0.15133647    -0.07200
C2182       C  0.28086169  0.58266832  0.13088571     0.13600
C2183       C  0.27149299  0.57777861  0.09664197    -0.24000
H2184       H  0.27414009  0.63311313  0.12797084     0.14900
H2185       H  0.30148464  0.54370898  0.19901358     0.15000
C2186       C  0.30346473  0.59882926  0.23004191    -0.24000
H2187       H  0.26438436  0.60034207  0.08508895     0.05200
H2188       H  0.25107522  0.56126206  0.09515397     0.08400
H2189       H  0.29174886  0.56809718  0.08302427     0.08400
H2190       H  0.30201922  0.62399106  0.23746556     0.08400
H2191       H  0.32793583  0.59037907  0.23477694     0.08400
H2192       H  0.28686069  0.58481786  0.24473956     0.05200
C2193       C  0.26232012  0.78462958  0.37938025    -0.20600
C2194       C  0.28345130  0.76392922  0.36371796    -0.07200
C2195       C  0.31079504  0.75353600  0.38001490     0.13700
C2196       C  0.31705522  0.76542461  0.41075421    -0.20700
C2197       C  0.29660697  0.78739302  0.42525304    -0.07200
C2198       C  0.26868456  0.79664625  0.40961281     0.13600
C2199       C  0.24654589  0.82072855  0.42400641    -0.24000
H2200       H  0.24132972  0.79305827  0.36714311     0.14900
H2201       H  0.33871666  0.75875160  0.42291217     0.15000
C2202       C  0.33422726  0.73168333  0.36446497    -0.24000
H2203       H  0.23829180  0.81229642  0.44748194     0.05200
H2204       H  0.22542753  0.82500033  0.40877544     0.08400
H2205       H  0.25911466  0.84360548  0.42724150     0.08400
H2206       H  0.34369852  0.74284321  0.34260649     0.08400
H2207       H  0.32243326  0.70900534  0.35824385     0.08400
H2208       H  0.35450961  0.72628940  0.38043291     0.05200
C2209       C  0.20021153  0.73579103  0.40063431    -0.20600
C2210       C  0.20191276  0.71163468  0.37743351    -0.07200
C2211       C  0.20395006  0.67974442  0.38790341     0.13700
C2212       C  0.20455570  0.67332547  0.42076468    -0.20700
C2213       C  0.20316723  0.69773058  0.44345785    -0.07200
C2214       C  0.20050522  0.72926971  0.43317106     0.13600
C2215       C  0.19575173  0.75602015  0.45641711    -0.24000
H2216       H  0.19779630  0.76028962  0.39347746     0.14900
H2217       H  0.20509813  0.64897911  0.42890281     0.15000
C2218       C  0.20490001  0.65230091  0.36503751    -0.24000
H2219       H  0.19203549  0.77900492  0.44419728     0.05200
H2220       H  0.21685172  0.75820768  0.47206331     0.08400
H2221       H  0.17444701  0.75143126  0.47109850     0.08400
H2222       H  0.22596572  0.65437767  0.34952034     0.08400
H2223       H  0.18298386  0.65198362  0.35038266     0.08400
H2224       H  0.20648437  0.62920348  0.37755052     0.05200
C2225       C  0.88181491  0.27752474  0.26111130    -0.20600
C2226       C  0.86690440  0.25244826  0.24461669    -0.07200
C2227       C  0.88666818  0.23269134  0.22571195     0.13700
C2228       C  0.91934201  0.24029338  0.22165643    -0.20700
C2229       C  0.93343045  0.26663120  0.23670537    -0.07200
C2230       C  0.91429254  0.28471498  0.25746953     0.13600
C2231       C  0.92805153  0.31243536  0.27541488    -0.24000
H2232       H  0.86774664  0.29238707  0.27659428     0.14900
H2233       H  0.93357147  0.22648042  0.20537079     0.15000
C2234       C  0.87352205  0.20392188  0.20921287    -0.24000
H2235       H  0.91039444  0.32345059  0.29149830     0.05200
H2236       H  0.93621796  0.33094514  0.25866643     0.08400
H2237       H  0.94841443  0.30430819  0.29005605     0.08400
H2238       H  0.85454938  0.21094097  0.19232984     0.08400
H2239       H  0.86378066  0.18725813  0.22706095     0.08400
H2240       H  0.89207202  0.19116316  0.19562675     0.05200
C2241       C  0.89436335  0.19868652  0.31195759    -0.20600
C2242       C  0.87365029  0.20612646  0.33662498    -0.07200
C2243       C  0.88432714  0.20724575  0.36820839     0.13700
C2244       C  0.91617818  0.20130735  0.37457804    -0.20700
C2245       C  0.93745889  0.19451101  0.34999046    -0.07200
C2246       C  0.92636157  0.19257223  0.31820784     0.13600
C2247       C  0.94750770  0.18327028  0.29095271    -0.24000
H2248       H  0.88549210  0.19805738  0.28779093     0.14900
H2249       H  0.92463232  0.20262174  0.39887316     0.15000
C2250       C  0.86219720  0.21546899  0.39502496    -0.24000
H2251       H  0.93395009  0.18076210  0.26843181     0.05200
H2252       H  0.95898188  0.16014937  0.29607021     0.08400
H2253       H  0.96581713  0.20167367  0.28701172     0.08400
H2254       H  0.84256585  0.19800008  0.39591799     0.08400
H2255       H  0.85215766  0.23950379  0.39129203     0.08400
H2256       H  0.87451662  0.21525277  0.41836018     0.05200
C2257       C  0.78747018  0.11420217  0.32423260    -0.20600
C2258       C  0.78881542  0.12408069  0.29235172    -0.07200
C2259       C  0.79895475  0.10179452  0.26924029     0.13700
C2260       C  0.80794096  0.07087998  0.27879489    -0.20700
C2261       C  0.80733260  0.06160515  0.31085939    -0.07200
C2262       C  0.79635067  0.08358600  0.33372132     0.13600
C2263       C  0.79279222  0.07471352  0.36823426    -0.24000
H2264       H  0.77935493  0.13067746  0.34217917     0.14900
H2265       H  0.81614024  0.05405622  0.26120739     0.15000
C2266       C  0.79994621  0.11009675  0.23451761    -0.24000
H2267       H  0.78112279  0.09379206  0.38210970     0.05200
H2268       H  0.81633047  0.07050348  0.37921096     0.08400
H2269       H  0.77800568  0.05307445  0.37031448     0.08400
H2270       H  0.81712614  0.12957649  0.23055984     0.08400
H2271       H  0.77607938  0.11756209  0.22631247     0.08400
H2272       H  0.80741372  0.08961466  0.21977368     0.05200
C2273       C  0.71047554  0.09737383  0.19443671    -0.20600
C2274       C  0.70892216  0.10205499  0.22748710    -0.07200
C2275       C  0.71063267  0.07466254  0.24745748     0.13700
C2276       C  0.71189770  0.04421889  0.23383055    -0.20700
C2277       C  0.71076066  0.03975361  0.20099307    -0.07200
C2278       C  0.71116499  0.06674906  0.18101894     0.13600
C2279       C  0.71237066  0.06337836  0.14542384    -0.24000
H2280       H  0.71035199  0.11777156  0.17884185     0.14900
H2281       H  0.71142138  0.02353031  0.24905041     0.15000
C2282       C  0.70958238  0.07644237  0.28324174    -0.24000
H2283       H  0.71447392  0.08673339  0.13349105     0.05200
H2284       H  0.69047708  0.05194149  0.13645729     0.08400
H2285       H  0.73323194  0.04886270  0.13867272     0.08400
H2286       H  0.68723911  0.08794148  0.29097646     0.08400
H2287       H  0.73033115  0.08972998  0.29235504     0.08400
H2288       H  0.71040209  0.05264019  0.29442103     0.05200
C2289       C  0.69504668  0.20608305  0.10342484    -0.20600
C2290       C  0.71193141  0.18250470  0.08779844    -0.07200
C2291       C  0.73800935  0.16841997  0.10365805     0.13700
C2292       C  0.74657766  0.17861108  0.13478682    -0.20700
C2293       C  0.72871221  0.20168894  0.15117033    -0.07200
C2294       C  0.70231789  0.21545396  0.13456004     0.13600
C2295       C  0.68038406  0.23968047  0.14902035    -0.24000
H2296       H  0.67461586  0.21623390  0.09147321     0.14900
H2297       H  0.76636696  0.16746579  0.14682616     0.15000
C2298       C  0.75589705  0.14183314  0.08816365    -0.24000
H2299       H  0.66195804  0.24801638  0.13207895     0.05200
H2300       H  0.69392613  0.26085381  0.15633656     0.08400
H2301       H  0.66759669  0.22921455  0.16943777     0.08400
H2302       H  0.76618954  0.15018792  0.06545210     0.08400
H2303       H  0.73957189  0.12177507  0.08329035     0.08400
H2304       H  0.77544782  0.13307719  0.10353825     0.05200
C2305       C  0.76519318  0.26789897  0.11298421    -0.20600
C2306       C  0.78750609  0.27496376  0.13700919    -0.07200
C2307       C  0.81996216  0.27592214  0.12838514     0.13700
C2308       C  0.82862723  0.27083075  0.09645186    -0.20700
C2309       C  0.80609319  0.26483113  0.07229291    -0.07200
C2310       C  0.77392209  0.26249148  0.08121985     0.13600
C2311       C  0.74833809  0.25493276  0.05755842    -0.24000
H2312       H  0.74032594  0.26687974  0.11890234     0.14900
H2313       H  0.85343466  0.27251880  0.09011351     0.15000
C2314       C  0.84575548  0.28331610  0.15212174    -0.24000
H2315       H  0.72444287  0.25489910  0.06844660     0.05200
H2316       H  0.75272634  0.23092516  0.04786773     0.08400
H2317       H  0.74804703  0.27286098  0.03832170     0.08400
H2318       H  0.84639141  0.26489385  0.17084611     0.08400
H2319       H  0.84149724  0.30691039  0.16295091     0.08400
H2320       H  0.86954159  0.28388171  0.14094270     0.05200
C2321       C  0.60146017  0.26076229  0.27073780    -0.20600
C2322       C  0.62509372  0.27188542  0.24954807    -0.07200
C2323       C  0.61427595  0.28651703  0.22132218     0.13700
C2324       C  0.58165547  0.28914688  0.21486284    -0.20700
C2325       C  0.55753102  0.27737115  0.23498876    -0.07200
C2326       C  0.56810882  0.26319559  0.26384062     0.13600
C2327       C  0.54463459  0.25055178  0.28735993    -0.24000
H2328       H  0.60909234  0.24925879  0.29242944     0.14900
H2329       H  0.57529023  0.30117629  0.19316160     0.15000
C2330       C  0.63683825  0.30075719  0.19766436    -0.24000
H2331       H  0.55661819  0.23976240  0.30823410     0.05200
H2332       H  0.52973458  0.23212097  0.27601588     0.08400
H2333       H  0.52925337  0.27008535  0.29590483     0.08400
H2334       H  0.65401480  0.28292623  0.18942423     0.08400
H2335       H  0.64931454  0.32094540  0.20859960     0.08400
H2336       H  0.62449122  0.31000754  0.17627187     0.05200
C2337       C  0.57204664  0.14568739  0.32699426    -0.20600
C2338       C  0.54968572  0.14825533  0.30243405    -0.07200
C2339       C  0.55777341  0.16446656  0.27424078     0.13700
C2340       C  0.58810921  0.17714760  0.27132597    -0.20700
C2341       C  0.61115220  0.17362488  0.29530351    -0.07200
C2342       C  0.60265265  0.15821968  0.32398503     0.13600
C2343       C  0.62531133  0.15436631  0.35150974    -0.24000
H2344       H  0.56544263  0.13392414  0.34884790     0.14900
H2345       H  0.59400614  0.18922763  0.24945458     0.15000
C2346       C  0.53535216  0.16737113  0.24629786    -0.24000
H2347       H  0.61389887  0.14273935  0.37215358     0.05200
H2348       H  0.63383789  0.17793588  0.35955066     0.08400
H2349       H  0.64562386  0.13927598  0.34441271     0.08400
H2350       H  0.51488229  0.18265631  0.25231306     0.08400
H2351       H  0.52685829  0.14354305  0.23908314     0.08400
H2352       H  0.54697651  0.17831252  0.22539310     0.05200
C2353       C  0.75517383  0.40586980  0.33696025    -0.20600
C2354       C  0.77739248  0.42177284  0.31771622    -0.07200
C2355       C  0.78959402  0.40560613  0.29116737     0.13700
C2356       C  0.78054912  0.37408520  0.28508156    -0.20700
C2357       C  0.75921108  0.35742572  0.30466322    -0.07200
C2358       C  0.74554999  0.37415447  0.33051664     0.13600
C2359       C  0.72214490  0.35837686  0.35229378    -0.24000
H2360       H  0.74626536  0.41786384  0.35785011     0.14900
H2361       H  0.79122740  0.36198338  0.26513722     0.15000
C2362       C  0.81366701  0.42120513  0.26998841    -0.24000
H2363       H  0.73260558  0.33669580  0.36287718     0.05200
H2364       H  0.71494093  0.37430670  0.37197764     0.08400
H2365       H  0.70050620  0.35180638  0.33883396     0.08400
H2366       H  0.83533655  0.42700215  0.28383928     0.08400
H2367       H  0.80360036  0.44335075  0.26002089     0.08400
H2368       H  0.82063009  0.40565247  0.24992319     0.05200
C2369       C  0.73909859  0.39534581  0.21534599    -0.20600
C2370       C  0.71888162  0.37309337  0.22976464    -0.07200
C2371       C  0.69585210  0.38393457  0.25152593     0.13700
C2372       C  0.69223057  0.41667736  0.25636798    -0.20700
C2373       C  0.71101841  0.43873946  0.24013420    -0.07200
C2374       C  0.73541360  0.42789862  0.22020727     0.13600
C2375       C  0.75614270  0.45075685  0.20227542    -0.24000
H2376       H  0.75752906  0.38724075  0.19942500     0.14900
H2377       H  0.67300180  0.42524161  0.27105968     0.15000
C2378       C  0.67506940  0.36146890  0.26972879    -0.24000
H2379       H  0.77427720  0.43826900  0.18788668     0.05200
H2380       H  0.76861624  0.46652560  0.21925439     0.08400
H2381       H  0.74151605  0.46540480  0.18597666     0.08400
H2382       H  0.65991335  0.37412487  0.28711179     0.08400
H2383       H  0.68982645  0.34433403  0.28297166     0.08400
H2384       H  0.65927698  0.34847599  0.25329845     0.05200
C2385       C  0.68639101  0.24404015  0.40319707    -0.20600
C2386       C  0.69901134  0.21918716  0.38465521    -0.07200
C2387       C  0.70288575  0.18899020  0.39941012     0.13700
C2388       C  0.69333875  0.18456603  0.43098690    -0.20700
C2389       C  0.68001212  0.20897566  0.44907572    -0.07200
C2390       C  0.67690275  0.23927662  0.43513438     0.13600
C2391       C  0.66243898  0.26619380  0.45344801    -0.24000
H2392       H  0.68377416  0.26729056  0.39266074     0.14900
H2393       H  0.69573727  0.16131896  0.44166319     0.15000
C2394       C  0.71654954  0.16061127  0.38236887    -0.24000
H2395       H  0.63804604  0.25978587  0.46084079     0.05200
H2396       H  0.66111376  0.28814244  0.43900236     0.08400
H2397       H  0.67698130  0.27128697  0.47484225     0.08400
H2398       H  0.74159094  0.16522806  0.37591712     0.08400
H2399       H  0.71645828  0.13899297  0.39737084     0.08400
H2400       H  0.70232663  0.15523390  0.36083184     0.05200
C2401       C  0.76323097  0.26133254  0.43200590    -0.20600
C2402       C  0.77661922  0.28042802  0.40785144    -0.07200
C2403       C  0.78695987  0.31130310  0.41618438     0.13700
C2404       C  0.78437786  0.32147458  0.44777549    -0.20700
C2405       C  0.77425455  0.30125535  0.47232290    -0.07200
C2406       C  0.76230616  0.27115434  0.46407647     0.13600
C2407       C  0.75026543  0.24870388  0.48901842    -0.24000
H2408       H  0.75474093  0.23784379  0.42613602     0.14900
H2409       H  0.79305794  0.34487456  0.45389248     0.15000
C2410       C  0.80322115  0.33312291  0.39298726    -0.24000
H2411       H  0.74204266  0.22602111  0.47849661     0.05200
H2412       H  0.73000190  0.25961040  0.50171170     0.08400
H2413       H  0.76942838  0.24321786  0.50627457     0.08400
H2414       H  0.78708719  0.33930154  0.37319542     0.08400
H2415       H  0.82485845  0.32152968  0.38356982     0.08400
H2416       H  0.81071306  0.35572072  0.40424477     0.05200
C2417       C  0.11263794  0.81475900  0.75442664    -0.20600
C2418       C  0.12734187  0.79493711  0.73189469    -0.07200
C2419       C  0.10779008  0.78092947  0.70797293     0.13700
C2420       C  0.07509810  0.78642160  0.70785229    -0.20700
C2421       C  0.06134670  0.80847659  0.72815194    -0.07200
C2422       C  0.08019438  0.82274825  0.75189332     0.13600
C2423       C  0.06632259  0.84749001  0.77344534    -0.24000
H2424       H  0.12691358  0.82568630  0.77282925     0.14900
H2425       H  0.06062213  0.77650224  0.68895861     0.15000
C2426       C  0.12079669  0.76305232  0.68005112    -0.24000
H2427       H  0.08411897  0.85649081  0.79070737     0.05200
H2428       H  0.04625204  0.83716231  0.78688073     0.08400
H2429       H  0.05761443  0.86784078  0.75918279     0.08400
H2430       H  0.13358093  0.74154417  0.68761156     0.08400
H2431       H  0.13656567  0.77924047  0.66681409     0.08400
H2432       H  0.10200925  0.75517512  0.66328177     0.05200
C2433       C  0.08551905  0.71296799  0.75659776    -0.20600
C2434       C  0.10961610  0.72353592  0.77720105    -0.07200
C2435       C  0.10091707  0.74055768  0.80480634     0.13700
C2436       C  0.06850743  0.74458866  0.81187816    -0.20700
C2437       C  0.04455640  0.73190112  0.79228827    -0.07200
C2438       C  0.05338796  0.71642636  0.76399730     0.13600
C2439       C  0.02906235  0.70098383  0.74281498    -0.24000
H2440       H  0.09183453  0.70045987  0.73505452     0.14900
H2441       H  0.06182368  0.75539693  0.83422651     0.15000
C2442       C  0.12541393  0.75428025  0.82699665    -0.24000
H2443       H  0.04007851  0.68922082  0.72200467     0.05200
H2444       H  0.01252115  0.71916255  0.73380667     0.08400
H2445       H  0.01565962  0.68276961  0.75618772     0.08400
H2446       H  0.14106347  0.77075595  0.81381157     0.08400
H2447       H  0.13981563  0.73501531  0.83767247     0.08400
H2448       H  0.11433532  0.76772442  0.84672816     0.05200
C2449       C  0.37773590  0.80043980  0.71942153    -0.20600
C2450       C  0.36214864  0.77563691  0.70326152    -0.07200
C2451       C  0.37945699  0.75804278  0.68047294     0.13700
C2452       C  0.41099284  0.76693871  0.67340956    -0.20700
C2453       C  0.42558131  0.79269163  0.68878809    -0.07200
C2454       C  0.40894759  0.80903983  0.71259789     0.13600
C2455       C  0.42403372  0.83590092  0.73081070    -0.24000
H2456       H  0.36534639  0.81360328  0.73762357     0.14900
H2457       H  0.42382877  0.75464592  0.65488230     0.15000
C2458       C  0.36467997  0.73078040  0.66280045    -0.24000
H2459       H  0.40792230  0.84563161  0.74919142     0.05200
H2460       H  0.43022528  0.85545598  0.71450190     0.08400
H2461       H  0.44588135  0.82741683  0.74283180     0.08400
H2462       H  0.34349986  0.73907022  0.64948095     0.08400
H2463       H  0.35769584  0.71199910  0.67981924     0.08400
H2464       H  0.38141161  0.72014835  0.64551330     0.05200
C2465       C  0.41794748  0.67310279  0.78964259    -0.20600
C2466       C  0.44361273  0.69251327  0.78091146    -0.07200
C2467       C  0.43718360  0.72380678  0.77092659     0.13700
C2468       C  0.40579580  0.73516085  0.77191975    -0.20700
C2469       C  0.38048694  0.71654157  0.78336427    -0.07200
C2470       C  0.38694555  0.68473263  0.79220277     0.13600
C2471       C  0.36227908  0.66309123  0.80643685    -0.24000
H2472       H  0.42254838  0.64887155  0.79673694     0.14900
H2473       H  0.40134944  0.75936978  0.76487307     0.15000
C2474       C  0.46318890  0.74594744  0.76071352    -0.24000
H2475       H  0.37220931  0.63958208  0.81290531     0.05200
H2476       H  0.34283771  0.65878360  0.78931091     0.08400
H2477       H  0.35267142  0.67382521  0.82846087     0.08400
H2478       H  0.47559670  0.73600899  0.73976169     0.08400
H2479       H  0.48029617  0.74949782  0.78046942     0.08400
H2480       H  0.45380264  0.76955128  0.75394032     0.05200
C2481       C  0.19696612  0.76815997  0.87923156    -0.20600
C2482       C  0.21335373  0.74563779  0.86095832    -0.07200
C2483       C  0.22458135  0.71738429  0.87614014     0.13700
C2484       C  0.21859377  0.71274926  0.90825387    -0.20700
C2485       C  0.20019815  0.73386640  0.92558507    -0.07200
C2486       C  0.18962131  0.76218328  0.91131238     0.13600
C2487       C  0.16932795  0.78513721  0.92941188    -0.24000
H2488       H  0.18854530  0.78969337  0.86805651     0.14900
H2489       H  0.22627466  0.69096067  0.91958240     0.15000
C2490       C  0.24164906  0.69063070  0.85927462    -0.24000
H2491       H  0.16286566  0.80602436  0.91474040     0.05200
H2492       H  0.18238516  0.79359092  0.95070921     0.08400
H2493       H  0.14713178  0.77327835  0.93697004     0.08400
H2494       H  0.26436343  0.69908098  0.84933440     0.08400
H2495       H  0.22631847  0.68047608  0.84036251     0.08400
H2496       H  0.24766650  0.67074649  0.87546031     0.05200
C2497       C  0.29284095  0.77316022  0.90353101    -0.20600
C2498       C  0.29642977  0.79569779  0.87884566    -0.07200
C2499       C  0.29934998  0.82800849  0.88778527     0.13700
C2500       C  0.30101101  0.83618030  0.92026928    -0.20700
C2501       C  0.29953719  0.81337932  0.94469428    -0.07200
C2502       C  0.29428758  0.78149945  0.93601855     0.13600
C2503       C  0.29163351  0.75589503  0.96074294    -0.24000
H2504       H  0.28965186  0.74842118  0.89752639     0.14900
H2505       H  0.30459382  0.86078921  0.92671188     0.15000
C2506       C  0.30092696  0.85427526  0.86359929    -0.24000
H2507       H  0.28807790  0.73218776  0.94985263     0.05200
H2508       H  0.27102613  0.76073786  0.97631755     0.08400
H2509       H  0.31361408  0.75501471  0.97527699     0.08400
H2510       H  0.27937855  0.85384183  0.84840289     0.08400
H2511       H  0.32241296  0.85157286  0.84873916     0.08400
H2512       H  0.30216192  0.87799163  0.87497475     0.05200
C2513       C  0.30624484  0.92199352  0.77787299    -0.20600
C2514       C  0.28301036  0.94311287  0.78852870    -0.07200
C2515       C  0.25161847  0.93190926  0.79178044     0.13700
C2516       C  0.24491236  0.89935567  0.78628880    -0.20700
C2517       C  0.26891987  0.87771408  0.77753398    -0.07200
C2518       C  0.30008847  0.88986018  0.77274348     0.13600
C2519       C  0.32793101  0.86943816  0.76316239    -0.24000
H2520       H  0.33024548  0.93062600  0.77482443     0.14900
H2521       H  0.22088946  0.89079494  0.78903583     0.15000
C2522       C  0.22551453  0.95395287  0.80176568    -0.24000
H2523       H  0.35051030  0.88292766  0.76249923     0.05200
H2524       H  0.32414542  0.85982659  0.73892501     0.08400
H2525       H  0.33124736  0.84994951  0.78052398     0.08400
H2526       H  0.20241722  0.94148373  0.80338025     0.08400
H2527       H  0.22304057  0.97330170  0.78408706     0.08400
H2528       H  0.23109726  0.96427957  0.82537167     0.05200
C2529       C  0.23321033  0.92045508  0.70278455    -0.20600
C2530       C  0.21005260  0.89635234  0.70405280    -0.07200
C2531       C  0.17820864  0.90522393  0.71012188     0.13700
C2532       C  0.17048256  0.93753126  0.71284255    -0.20700
C2533       C  0.19349265  0.96138056  0.71008988    -0.07200
C2534       C  0.22536483  0.95260579  0.70561912     0.13600
C2535       C  0.25113422  0.97695874  0.70280013    -0.24000
H2536       H  0.25781450  0.91430412  0.69889008     0.14900
H2537       H  0.14591226  0.94440406  0.71583324     0.15000
C2538       C  0.15206702  0.88121349  0.71375779    -0.24000
H2539       H  0.27450829  0.96605679  0.69759228     0.05200
H2540       H  0.25327865  0.98942231  0.72571592     0.08400
H2541       H  0.24552260  0.99402145  0.68354901     0.08400
H2542       H  0.15799150  0.86474400  0.73341175     0.08400
H2543       H  0.14878729  0.86782262  0.69131185     0.08400
H2544       H  0.12902854  0.89255101  0.71950785     0.05200
C2545       C  0.25640157  0.62689489  0.77915419    -0.20600
C2546       C  0.27733883  0.64262973  0.75853268    -0.07200
C2547       C  0.30345237  0.62560384  0.74612822     0.13700
C2548       C  0.30945573  0.59452728  0.75717621    -0.20700
C2549       C  0.28927614  0.57991000  0.77926549    -0.07200
C2550       C  0.26190201  0.59590140  0.78938894     0.13600
C2551       C  0.23950547  0.58095040  0.81282010    -0.24000
H2552       H  0.23619875  0.63944642  0.78872240     0.14900
H2553       H  0.33074100  0.58223050  0.74980279     0.15000
C2554       C  0.32592382  0.64053736  0.72283114    -0.24000
H2555       H  0.21877408  0.59636819  0.81777398     0.05200
H2556       H  0.25198686  0.57642410  0.83561030     0.08400
H2557       H  0.23064945  0.55815302  0.80316636     0.08400
H2558       H  0.33657448  0.66229973  0.73309715     0.08400
H2559       H  0.31293339  0.64674889  0.70073966     0.08400
H2560       H  0.34550123  0.62418531  0.71641101     0.05200
C2561       C  0.19167957  0.60170666  0.73124764    -0.20600
C2562       C  0.19546743  0.62521022  0.70763252    -0.07200
C2563       C  0.19755620  0.61520634  0.67553564     0.13700
C2564       C  0.19353375  0.58286291  0.66809331    -0.20700
C2565       C  0.18801628  0.55995418  0.69167592    -0.07200
C2566       C  0.18774884  0.56951939  0.72369131     0.13600
C2567       C  0.18118700  0.54617815  0.74984253    -0.24000
H2568       H  0.19043927  0.60854175  0.75598987     0.14900
H2569       H  0.19348595  0.57548445  0.64344182     0.15000
C2570       C  0.20371631  0.63813679  0.64884037    -0.24000
H2571       H  0.18065102  0.55772282  0.77351107     0.05200
H2572       H  0.19998865  0.52790524  0.75013267     0.08400
H2573       H  0.15785550  0.53467769  0.74587696     0.08400
H2574       H  0.22624416  0.65101161  0.65328030     0.08400
H2575       H  0.18384167  0.65523054  0.64673272     0.08400
H2576       H  0.20589374  0.62585643  0.62562452     0.05200
C2577       C  0.25103467  0.70750054  0.60832333    -0.20600
C2578       C  0.22914149  0.72702891  0.62440211    -0.07200
C2579       C  0.20346816  0.73996330  0.60654500     0.13700
C2580       C  0.20035362  0.73292409  0.57430596    -0.20700
C2581       C  0.21968905  0.71060941  0.55963121    -0.07200
C2582       C  0.24594202  0.69831732  0.57638690     0.13600
C2583       C  0.26749510  0.67449342  0.56103743    -0.24000
H2584       H  0.27100590  0.69774400  0.62125478     0.14900
H2585       H  0.18003407  0.74191750  0.56125573     0.15000
C2586       C  0.17674866  0.75819235  0.62133850    -0.24000
H2587       H  0.28696072  0.66718078  0.57726325     0.05200
H2588       H  0.27817103  0.68495177  0.53940279     0.08400
H2589       H  0.25378683  0.65305797  0.55432465     0.08400
H2590       H  0.18546257  0.77979673  0.63331716     0.08400
H2591       H  0.16475246  0.74227869  0.63833471     0.08400
H2592       H  0.15866938  0.76587936  0.60372694     0.05200
C2593       C  0.30541534  0.79623745  0.59749303    -0.20600
C2594       C  0.27594118  0.80885912  0.60620285    -0.07200
C2595       C  0.25487937  0.81954783  0.58191575     0.13700
C2596       C  0.26383455  0.81692268  0.54999949    -0.20700
C2597       C  0.29351497  0.80509765  0.54158814    -0.07200
C2598       C  0.31464079  0.79477256  0.56552565     0.13600
C2599       C  0.34723917  0.78282127  0.55732232    -0.24000
H2600       H  0.32146475  0.78782299  0.61577349     0.14900
H2601       H  0.24840703  0.82609692  0.53151866     0.15000
C2602       C  0.22382529  0.83579460  0.58910088    -0.24000
H2603       H  0.36047275  0.77496032  0.57875317     0.05200
H2604       H  0.36116767  0.80188913  0.54583015     0.08400
H2605       H  0.34524189  0.76239995  0.54082645     0.08400
H2606       H  0.22780716  0.85566899  0.60592666     0.08400
H2607       H  0.20671450  0.81874563  0.59919319     0.08400
H2608       H  0.21264154  0.84577062  0.56739176     0.05200
C2609       C  0.22633401  0.22208042  0.89925958    -0.20600
C2610       C  0.25160009  0.22878518  0.87817774    -0.07200
C2611       C  0.28238203  0.23168715  0.89186868     0.13700
C2612       C  0.28675088  0.22837697  0.92493831    -0.20700
C2613       C  0.26198772  0.22090955  0.94597530    -0.07200
C2614       C  0.23118885  0.21789634  0.93266421     0.13600
C2615       C  0.20364405  0.20927652  0.95342049    -0.24000
H2616       H  0.20260919  0.21996622  0.88959400     0.14900
H2617       H  0.31042996  0.23096134  0.93454400     0.15000
C2618       C  0.31150995  0.23746455  0.87196254    -0.24000
H2619       H  0.18132381  0.20723772  0.93952362     0.05200
H2620       H  0.20028978  0.22781084  0.97180961     0.08400
H2621       H  0.20824238  0.18617704  0.96514590     0.08400
H2622       H  0.31042370  0.26132434  0.86100000     0.08400
H2623       H  0.31343315  0.21898427  0.85330147     0.08400
H2624       H  0.33362855  0.23654978  0.88630039     0.05200
C2625       C  0.16482094  0.31517820  0.89983781    -0.20600
C2626       C  0.19781340  0.31449721  0.89517663    -0.07200
C2627       C  0.21826456  0.31617183  0.92205611     0.13700
C2628       C  0.20502991  0.31914412  0.95233293    -0.20700
C2629       C  0.17223695  0.32125183  0.95648347    -0.07200
C2630       C  0.15179052  0.31880694  0.93006988     0.13600
C2631       C  0.11622681  0.31932611  0.93361892    -0.24000
H2632       H  0.14895028  0.31322382  0.87964692     0.14900
H2633       H  0.22043958  0.32101085  0.97290736     0.15000
C2634       C  0.25393237  0.31605108  0.91951310    -0.24000
H2635       H  0.10396650  0.31495209  0.91065347     0.05200
H2636       H  0.10830299  0.34278484  0.94240525     0.08400
H2637       H  0.10875858  0.30061945  0.95051315     0.08400
H2638       H  0.26187855  0.33605119  0.90442070     0.08400
H2639       H  0.26213361  0.29328411  0.90937841     0.08400
H2640       H  0.26561503  0.31870069  0.94303381     0.05200
C2641       C  0.18697926  0.12325662  0.76512852    -0.20600
C2642       C  0.19926631  0.14429027  0.74230515    -0.07200
C2643       C  0.20910305  0.13120741  0.71244234     0.13700
C2644       C  0.20516719  0.09902753  0.70627491    -0.20700
C2645       C  0.19069515  0.07883664  0.72779245    -0.07200
C2646       C  0.18233254  0.09067117  0.75801932     0.13600
C2647       C  0.16780793  0.06912881  0.78224473    -0.24000
H2648       H  0.18012695  0.13240831  0.78812335     0.14900
H2649       H  0.21162737  0.08965100  0.68318258     0.15000
C2650       C  0.22246554  0.15042084  0.68541980    -0.24000
H2651       H  0.16264938  0.08188741  0.80470030     0.05200
H2652       H  0.18446009  0.04945934  0.78761477     0.08400
H2653       H  0.14529803  0.05918742  0.77287027     0.08400
H2654       H  0.24515898  0.16158950  0.69244637     0.08400
H2655       H  0.20464512  0.16821450  0.67814881     0.08400
H2656       H  0.22764913  0.13592073  0.66404625     0.05200
C2657       C  0.28808727  0.08519167  0.82616936    -0.20600
C2658       C  0.28459328  0.06245857  0.80186654    -0.07200
C2659       C  0.27633274  0.07299383  0.77122826     0.13700
C2660       C  0.27416476  0.10558355  0.76512661    -0.20700
C2661       C  0.27965627  0.12863205  0.78885080    -0.07200
C2662       C  0.28545981  0.11797711  0.82026796     0.13600
C2663       C  0.28970298  0.14060163  0.84766912    -0.24000
H2664       H  0.29415399  0.07721204  0.84987549     0.14900
H2665       H  0.26883424  0.11295007  0.74109746     0.15000
C2666       C  0.27069818  0.05014170  0.74452366    -0.24000
H2667       H  0.29357730  0.12792680  0.87044401     0.05200
H2668       H  0.26813963  0.15543006  0.85039317     0.08400
H2669       H  0.31066951  0.15589779  0.84358387     0.08400
H2670       H  0.24987084  0.03546485  0.75067216     0.08400
H2671       H  0.29192238  0.03503872  0.74088459     0.08400
H2672       H  0.26542179  0.06235209  0.72177491     0.05200
C2673       C  0.06505226  0.26517199  0.83373034    -0.20600
C2674       C  0.05014554  0.29312387  0.82333105    -0.07200
C2675       C  0.06677190  0.31337640  0.80265088     0.13700
C2676       C  0.09810832  0.30617975  0.79412725    -0.20700
C2677       C  0.11406838  0.27910516  0.80565060    -0.07200
C2678       C  0.09670098  0.25781718  0.82508447     0.13600
C2679       C  0.11134713  0.22768716  0.83730175    -0.24000
H2680       H  0.05228243  0.24960398  0.84961084     0.14900
H2681       H  0.11032027  0.32231664  0.77841142     0.15000
C2682       C  0.05143559  0.34287165  0.78946052    -0.24000
H2683       H  0.09458888  0.21410976  0.85231513     0.05200
H2684       H  0.13255012  0.23327736  0.85194329     0.08400
H2685       H  0.11819218  0.21233290  0.81704270     0.08400
H2686       H  0.04574338  0.35959168  0.80894688     0.08400
H2687       H  0.02930447  0.33645705  0.77665745     0.08400
H2688       H  0.06719886  0.35538377  0.77255138     0.05200
C2689       C  0.06607103  0.24156002  0.73759849    -0.20600
C2690       C  0.09149413  0.22094423  0.73027939    -0.07200
C2691       C  0.08487012  0.18809467  0.72750851     0.13700
C2692       C  0.05320850  0.17775010  0.72842851    -0.20700
C2693       C  0.02774819  0.19900550  0.73188373    -0.07200
C2694       C  0.03442153  0.23108961  0.73826028     0.13600
C2695       C  0.00827744  0.25479317  0.74362882    -0.24000
H2696       H  0.07061010  0.26654392  0.74120151     0.14900
H2697       H  0.04805530  0.15294907  0.72413915     0.15000
C2698       C  0.11048520  0.16362989  0.72264415    -0.24000
H2699       H  0.01772955  0.27895493  0.74802861     0.05200
H2700       H  0.99419203  0.24778344  0.76468297     0.08400
H2701       H  0.99258781  0.25588844  0.72244979     0.08400
H2702       H  0.12794812  0.16492368  0.74237346     0.08400
H2703       H  0.12247352  0.16751482  0.69957787     0.08400
H2704       H  0.10078516  0.13918062  0.72226039     0.05200
C2705       C  0.36492422  0.27855651  0.78908922    -0.20600
C2706       C  0.34686495  0.30068274  0.77147372    -0.07200
C2707       C  0.36209680  0.32879627  0.76150075     0.13700
C2708       C  0.39393027  0.33464694  0.77082338    -0.20700
C2709       C  0.41147059  0.31264132  0.78897237    -0.07200
C2710       C  0.39684722  0.28386107  0.79731970     0.13600
C2711       C  0.41441104  0.25934885  0.81652692    -0.24000
H2712       H  0.35371462  0.25713965  0.79753292     0.14900
H2713       H  0.40480929  0.35713378  0.76501337     0.15000
C2714       C  0.34439419  0.35347440  0.74277084    -0.24000
H2715       H  0.39946556  0.23828854  0.82146435     0.05200
H2716       H  0.42201601  0.26959798  0.83960757     0.08400
H2717       H  0.43559300  0.25130375  0.80321429     0.08400
H2718       H  0.32319726  0.36144910  0.75610057     0.08400
H2719       H  0.33679046  0.34336355  0.71964674     0.08400
H2720       H  0.35937127  0.37453162  0.73795073     0.05200
C2721       C  0.38124730  0.24448596  0.71487195    -0.20600
C2722       C  0.36192495  0.21744999  0.71569757    -0.07200
C2723       C  0.37540597  0.18735020  0.71163136     0.13700
C2724       C  0.40808935  0.18477737  0.70763070    -0.20700
C2725       C  0.42815026  0.21155096  0.70799971    -0.07200
C2726       C  0.41432344  0.24198421  0.71108823     0.13600
C2727       C  0.43389896  0.27176930  0.71036552    -0.24000
H2728       H  0.37049795  0.26753668  0.71818636     0.14900
H2729       H  0.41801844  0.16123798  0.70529197     0.15000
C2730       C  0.35546235  0.15770982  0.71312983    -0.24000
H2731       H  0.41884278  0.29332143  0.71162032     0.05200
H2732       H  0.44764733  0.27280225  0.68797214     0.08400
H2733       H  0.45026879  0.27232169  0.73102664     0.08400
H2734       H  0.33695725  0.15842788  0.69434872     0.08400
H2735       H  0.34390288  0.15595141  0.73669759     0.08400
H2736       H  0.36985262  0.13597186  0.70956815     0.05200
C2737       C  0.22501868  0.39910344  0.70438664    -0.20600
C2738       C  0.20194887  0.37849251  0.71695765    -0.07200
C2739       C  0.17024594  0.39013459  0.71956563     0.13700
C2740       C  0.16269943  0.42065549  0.70864104    -0.20700
C2741       C  0.18558923  0.44111742  0.69632201    -0.07200
C2742       C  0.21732435  0.43032869  0.69452846     0.13600
C2743       C  0.24291590  0.45133779  0.68146642    -0.24000
H2744       H  0.24927989  0.39092065  0.70259904     0.14900
H2745       H  0.13841466  0.42892169  0.71009095     0.15000
C2746       C  0.14356383  0.37102642  0.73375918    -0.24000
H2747       H  0.26618786  0.43906468  0.68086458     0.05200
H2748       H  0.24548254  0.47270520  0.69661261     0.08400
H2749       H  0.23674254  0.45862903  0.65689600     0.08400
H2750       H  0.14871096  0.36591027  0.75908651     0.08400
H2751       H  0.14014353  0.34872654  0.72035782     0.08400
H2752       H  0.12061302  0.38390108  0.73305229     0.05200
C2753       C  0.25014470  0.42330351  0.78933213    -0.20600
C2754       C  0.26940680  0.39932865  0.80263436    -0.07200
C2755       C  0.29888495  0.40825194  0.81627513     0.13700
C2756       C  0.30747957  0.44040435  0.81695878    -0.20700
C2757       C  0.28752509  0.46438504  0.80505912    -0.07200
C2758       C  0.25858694  0.45551964  0.79062282     0.13600
C2759       C  0.23569774  0.47976013  0.77788915    -0.24000
H2760       H  0.22771350  0.41697363  0.77846575     0.14900
H2761       H  0.32987328  0.44698757  0.82777744     0.15000
C2762       C  0.32109135  0.38464037  0.83148396    -0.24000
H2763       H  0.21365983  0.46866793  0.76861352     0.05200
H2764       H  0.24677724  0.49290162  0.75803294     0.08400
H2765       H  0.22893066  0.49648346  0.79705812     0.08400
H2766       H  0.32925734  0.36714382  0.81366650     0.08400
H2767       H  0.30892774  0.37232551  0.85126214     0.08400
H2768       H  0.34255141  0.39619869  0.84150555     0.05200
C2769       C  0.28347195  0.26675274  0.62195721    -0.20600
C2770       C  0.25826728  0.24965386  0.63599495    -0.07200
C2771       C  0.24160457  0.22827123  0.61519201     0.13700
C2772       C  0.25101886  0.22424100  0.58310635    -0.20700
C2773       C  0.27678001  0.24026514  0.56977724    -0.07200
C2774       C  0.29325161  0.26175033  0.58985293     0.13600
C2775       C  0.32221894  0.27845499  0.57768685    -0.24000
H2776       H  0.29684664  0.28302960  0.63668877     0.14900
H2777       H  0.23885163  0.20682129  0.56855775     0.15000
C2778       C  0.21387931  0.20816460  0.62482615    -0.24000
H2779       H  0.33262726  0.29444780  0.59587603     0.05200
H2780       H  0.31584990  0.29281902  0.55654468     0.08400
H2781       H  0.34050153  0.26079230  0.57093654     0.08400
H2782       H  0.19375266  0.21250471  0.60837970     0.08400
H2783       H  0.20518163  0.21275897  0.64876204     0.08400
H2784       H  0.22054229  0.18279204  0.62304143     0.05200
C2785       C  0.15081627  0.27106294  0.60864761    -0.20600
C2786       C  0.15871448  0.29574722  0.62975885    -0.07200
C2787       C  0.15938823  0.32730623  0.61852933     0.13700
C2788       C  0.15235187  0.33307432  0.58647282    -0.20700
C2789       C  0.14568163  0.30805284  0.56562300    -0.07200
C2790       C  0.14496740  0.27669140  0.57668900     0.13600
C2791       C  0.13833008  0.24854963  0.55552123    -0.24000
H2792       H  0.14937323  0.24684023  0.61699383     0.14900
H2793       H  0.15330422  0.35703720  0.57730184     0.15000
C2794       C  0.16868327  0.35471423  0.63950727    -0.24000
H2795       H  0.15932688  0.23267696  0.55531799     0.05200
H2796       H  0.13275978  0.25516378  0.53067627     0.08400
H2797       H  0.11772023  0.23520256  0.56486529     0.08400
H2798       H  0.19261593  0.35052677  0.64972389     0.08400
H2799       H  0.15114647  0.35756592  0.65883921     0.08400
H2800       H  0.16944993  0.37736530  0.62615813     0.05200
C2801       C  0.71441094  0.08036115  0.82384746    -0.20600
C2802       C  0.69020627  0.06745808  0.80487680    -0.07200
C2803       C  0.67668889  0.08599561  0.78064964     0.13700
C2804       C  0.68583067  0.11770405  0.77744149    -0.20700
C2805       C  0.70883201  0.13157534  0.79744226    -0.07200
C2806       C  0.72437430  0.11207396  0.82004323     0.13600
C2807       C  0.75030660  0.12471777  0.84114526    -0.24000
H2808       H  0.72450508  0.06601318  0.84265762     0.14900
H2809       H  0.67417344  0.13198014  0.75951918     0.15000
C2810       C  0.65156598  0.07259767  0.75894144    -0.24000
H2811       H  0.75927321  0.10635536  0.85776687     0.05200
H2812       H  0.74130016  0.14485932  0.85546970     0.08400
H2813       H  0.77054280  0.13268878  0.82643033     0.08400
H2814       H  0.63057673  0.06527159  0.77293610     0.08400
H2815       H  0.66118209  0.05168846  0.74620239     0.08400
H2816       H  0.64365508  0.09015485  0.74096500     0.05200
C2817       C  0.73469995  0.09385633  0.71358795    -0.20600
C2818       C  0.75649033  0.11693113  0.72414708    -0.07200
C2819       C  0.78493817  0.10679394  0.73886798     0.13700
C2820       C  0.79230914  0.07434628  0.73928681    -0.20700
C2821       C  0.77187910  0.05189020  0.72572280    -0.07200
C2822       C  0.74217576  0.06156225  0.71398788     0.13600
C2823       C  0.71937125  0.03800977  0.69970047    -0.24000
H2824       H  0.71219986  0.10113624  0.70347783     0.14900
H2825       H  0.81527468  0.06667563  0.74797850     0.15000
C2826       C  0.80778369  0.12977652  0.75384491    -0.24000
H2827       H  0.69710359  0.04954378  0.69161147     0.05200
H2828       H  0.71319275  0.01984998  0.71768345     0.08400
H2829       H  0.73034206  0.02622168  0.67888832     0.08400
H2830       H  0.79534759  0.14423244  0.77194945     0.08400
H2831       H  0.81798546  0.14534565  0.73536296     0.08400
H2832       H  0.82776831  0.11743510  0.76579944     0.05200
C2833       C  0.69336559  0.38829062  0.76798585    -0.20600
C2834       C  0.69664781  0.36800337  0.79441977    -0.07200
C2835       C  0.69463711  0.38147311  0.82520073     0.13700
C2836       C  0.68769376  0.41370363  0.82861793    -0.20700
C2837       C  0.68366988  0.43376009  0.80240777    -0.07200
C2838       C  0.68765530  0.42111445  0.77162899     0.13600
C2839       C  0.68522914  0.44187744  0.74272465    -0.24000
H2840       H  0.69556131  0.37850583  0.74434290     0.14900
H2841       H  0.68529930  0.42346576  0.85230471     0.15000
C2842       C  0.69972525  0.36239538  0.85491994    -0.24000
H2843       H  0.68850984  0.42810741  0.72050278     0.05200
H2844       H  0.70391931  0.46035798  0.74364119     0.08400
H2845       H  0.66158068  0.45336710  0.74182684     0.08400
H2846       H  0.72457544  0.35407945  0.85539900     0.08400
H2847       H  0.68314111  0.34205262  0.85561329     0.08400
H2848       H  0.69592927  0.37659230  0.87678376     0.05200
C2849       C  0.78792801  0.40877014  0.76727956    -0.20600
C2850       C  0.77679150  0.38612130  0.74531737    -0.07200
C2851       C  0.76439985  0.39677750  0.71591489     0.13700
C2852       C  0.76525001  0.42929510  0.70869403    -0.20700
C2853       C  0.77853590  0.45142124  0.72975961    -0.07200
C2854       C  0.78949956  0.44107527  0.75962572     0.13600
C2855       C  0.80498019  0.46376607  0.78253882    -0.24000
H2856       H  0.79704811  0.40099384  0.79005719     0.14900
H2857       H  0.75769936  0.43725304  0.68540296     0.15000
C2858       C  0.75068898  0.37421795  0.69178704    -0.24000
H2859       H  0.81252673  0.45176918  0.80476718     0.05200
H2860       H  0.78806191  0.48276044  0.78890187     0.08400
H2861       H  0.82627336  0.47453073  0.77154123     0.08400
H2862       H  0.73154783  0.35993191  0.70268354     0.08400
H2863       H  0.76953025  0.35833535  0.68271771     0.08400
H2864       H  0.74042867  0.38693519  0.67110093     0.05200
C2865       C  0.78314713  0.22767893  0.90344215    -0.20600
C2866       C  0.76909440  0.25495472  0.89002635    -0.07200
C2867       C  0.76449466  0.28173366  0.91006090     0.13700
C2868       C  0.77472105  0.28076903  0.94173626    -0.20700
C2869       C  0.79028467  0.25437844  0.95437618    -0.07200
C2870       C  0.79415621  0.22730340  0.93518207     0.13600
C2871       C  0.81088952  0.19853017  0.94791721    -0.24000
H2872       H  0.78647181  0.20684037  0.88881089     0.14900
H2873       H  0.77254335  0.30181011  0.95637339     0.15000
C2874       C  0.74992005  0.31213307  0.89847761    -0.24000
H2875       H  0.81201608  0.17928154  0.92997328     0.05200
H2876       H  0.79801183  0.18949364  0.96898107     0.08400
H2877       H  0.83548713  0.20478089  0.95493564     0.08400
H2878       H  0.72526733  0.30762703  0.89044963     0.08400
H2879       H  0.76445517  0.32194301  0.87890641     0.08400
H2880       H  0.74879387  0.33048303  0.91735049     0.05200
C2881       C  0.70076295  0.22357747  0.93051092    -0.20600
C2882       C  0.68775711  0.20508440  0.90578496    -0.07200
C2883       C  0.67826221  0.17366541  0.91297376     0.13700
C2884       C  0.68089316  0.16255670  0.94441590    -0.20700
C2885       C  0.69240487  0.18170865  0.96942085    -0.07200
C2886       C  0.70326296  0.21240436  0.96188957     0.13600
C2887       C  0.71658893  0.23402924  0.98682827    -0.24000
H2888       H  0.70858419  0.24744241  0.92549356     0.14900
H2889       H  0.67266314  0.13884632  0.94977012     0.15000
C2890       C  0.66406562  0.15188780  0.88830765    -0.24000
H2891       H  0.72265849  0.25768154  0.97716141     0.05200
H2892       H  0.73859135  0.22327041  0.99634855     0.08400
H2893       H  0.69905186  0.23767499  0.00605207     0.08400
H2894       H  0.68159329  0.14700942  0.86936388     0.08400
H2895       H  0.64247480  0.16284722  0.87791658     0.08400
H2896       H  0.65704766  0.12871059  0.89855713     0.05200
C2897       C  0.86648800  0.20505240  0.77255999    -0.20600
C2898       C  0.84302310  0.20801047  0.74872146    -0.07200
C2899       C  0.85262351  0.20413347  0.71653183     0.13700
C2900       C  0.88441009  0.19913873  0.70942780    -0.20700
C2901       C  0.90786923  0.19586439  0.73275167    -0.07200
C2902       C  0.89878225  0.19902492  0.76497136     0.13600
C2903       C  0.92273838  0.19584030  0.79126394    -0.24000
H2904       H  0.85971298  0.20823787  0.79713677     0.14900
H2905       H  0.89077620  0.19716722  0.68457580     0.15000
C2906       C  0.83095182  0.20349664  0.68793428    -0.24000
H2907       H  0.94092246  0.21468609  0.78907324     0.05200
H2908       H  0.93430766  0.17225526  0.78995871     0.08400
H2909       H  0.91156612  0.19820977  0.81497502     0.08400
H2910       H  0.83803453  0.22229259  0.67098854     0.08400
H2911       H  0.80586671  0.20643547  0.69299468     0.08400
H2912       H  0.83332592  0.18027275  0.67575655     0.05200
C2913       C  0.87478206  0.28657999  0.84126794    -0.20600
C2914       C  0.86739087  0.28964042  0.80886903    -0.07200
C2915       C  0.89311549  0.29052623  0.78673041     0.13700
C2916       C  0.92458761  0.29099068  0.79791367    -0.20700
C2917       C  0.93153464  0.29065849  0.83032293    -0.07200
C2918       C  0.90636580  0.28692357  0.85219974     0.13600
C2919       C  0.91274062  0.28301208  0.88722649    -0.24000
H2920       H  0.85573749  0.28450704  0.85832102     0.14900
H2921       H  0.94391027  0.29381419  0.78126065     0.15000
C2922       C  0.88838009  0.29229230  0.75119794    -0.24000
H2923       H  0.89062130  0.27827810  0.90062042     0.05200
H2924       H  0.92350033  0.30474703  0.89732325     0.08400
H2925       H  0.92901439  0.26268249  0.89101483     0.08400
H2926       H  0.87492636  0.31400911  0.74489021     0.08400
H2927       H  0.87573299  0.27089869  0.74259755     0.08400
H2928       H  0.91122382  0.29327396  0.73822619     0.05200
C2929       C  0.59187676  0.26372736  0.72128390    -0.20600
C2930       C  0.60887425  0.24192697  0.74002273    -0.07200
C2931       C  0.59192655  0.21596715  0.75391015     0.13700
C2932       C  0.55926939  0.21386203  0.74967006    -0.20700
C2933       C  0.54348403  0.23284012  0.72774680    -0.07200
C2934       C  0.55960644  0.25851674  0.71380982     0.13600
C2935       C  0.54319983  0.27906504  0.68973442    -0.24000
H2936       H  0.60434169  0.28335355  0.71048680     0.14900
H2937       H  0.54660196  0.19392149  0.75979408     0.15000
C2938       C  0.60728945  0.18819130  0.77093045    -0.24000
H2939       H  0.55904210  0.29807394  0.68089071     0.05200
H2940       H  0.52208782  0.29026678  0.70068441     0.08400
H2941       H  0.53553550  0.26448846  0.66914635     0.08400
H2942       H  0.61927591  0.19583177  0.79291440     0.08400
H2943       H  0.62418685  0.17596836  0.75491103     0.08400
H2944       H  0.58980878  0.16997798  0.77826167     0.05200
C2945       C  0.56903094  0.26629315  0.81606856    -0.20600
C2946       C  0.59421283  0.28844749  0.81808164    -0.07200
C2947       C  0.58635609  0.32105688  0.81550159     0.13700
C2948       C  0.55423045  0.33023702  0.81292237    -0.20700
C2949       C  0.52928762  0.30803876  0.81205837    -0.07200
C2950       C  0.53702518  0.27558758  0.81292790     0.13600
C2951       C  0.51151357  0.25067208  0.81205549    -0.24000
H2952       H  0.57420736  0.24122053  0.81750946     0.14900
H2953       H  0.54838068  0.35523669  0.81238812     0.15000
C2954       C  0.61135077  0.34654219  0.81543501    -0.24000
H2955       H  0.52152438  0.22639404  0.81365000     0.05200
H2956       H  0.49809338  0.25242890  0.78941195     0.08400
H2957       H  0.49507584  0.25405282  0.83229611     0.08400
H2958       H  0.62797354  0.34259188  0.79545688     0.08400
H2959       H  0.62447308  0.34642448  0.83829769     0.08400
H2960       H  0.60091170  0.37051388  0.81243939     0.05200
C2961       C  0.72671133  0.29847057  0.63440927    -0.20600
C2962       C  0.75015147  0.29351954  0.65794163    -0.07200
C2963       C  0.78251559  0.29389510  0.64839576     0.13700
C2964       C  0.79008307  0.29748322  0.61649089    -0.20700
C2965       C  0.76724421  0.30324004  0.59300809    -0.07200
C2966       C  0.73492668  0.30357665  0.60203965     0.13600
C2967       C  0.70932161  0.30962399  0.57792476    -0.24000
H2968       H  0.70199092  0.29781004  0.64120594     0.14900
H2969       H  0.81486752  0.29656602  0.60987600     0.15000
C2970       C  0.81019998  0.29175962  0.67127338    -0.24000
H2971       H  0.68545951  0.30956632  0.58895628     0.05200
H2972       H  0.70980685  0.29084835  0.55947328     0.08400
H2973       H  0.71308975  0.33305373  0.56661405     0.08400
H2974       H  0.81086375  0.26860884  0.68338182     0.08400
H2975       H  0.80897343  0.31121650  0.68870438     0.08400
H2976       H  0.83341773  0.29420772  0.65919046     0.05200
C2977       C  0.65934768  0.21824481  0.62489443    -0.20600
C2978       C  0.69174229  0.21516790  0.63214765    -0.07200
C2979       C  0.71375494  0.21493915  0.60631787     0.13700
C2980       C  0.70252014  0.21526599  0.57483142    -0.20700
C2981       C  0.67015059  0.21507525  0.56793331    -0.07200
C2982       C  0.64831587  0.21811205  0.59327736     0.13600
C2983       C  0.61322484  0.22120506  0.58709633    -0.24000
H2984       H  0.64236089  0.21979566  0.64405889     0.14900
H2985       H  0.71915059  0.21297811  0.55540579     0.15000
C2986       C  0.74920926  0.21263173  0.61089998    -0.24000
H2987       H  0.59986436  0.22551844  0.60935651     0.05200
H2988       H  0.60364418  0.19926587  0.57627265     0.08400
H2989       H  0.60881792  0.24149433  0.57092612     0.08400
H2990       H  0.75530987  0.19033072  0.62345755     0.08400
H2991       H  0.75802518  0.23334591  0.62444430     0.08400
H2992       H  0.76212501  0.21244225  0.58797895     0.05200
C2993       C  0.79771690  0.74054461  0.11613383    -0.20600
C2994       C  0.78432054  0.71805298  0.13669064    -0.07200
C2995       C  0.77440102  0.68826868  0.12369699     0.13700
C2996       C  0.77939756  0.68190157  0.09164302    -0.20700
C2997       C  0.79446091  0.70343113  0.07173546    -0.07200
C2998       C  0.80312562  0.73350508  0.08381773     0.13600
C2999       C  0.81912048  0.75816111  0.06377626    -0.24000
H3000       H  0.80472777  0.76345062  0.12541318     0.14900
H3001       H  0.77282999  0.65891568  0.08213239     0.15000
C3002       C  0.75916571  0.66199453  0.14281093    -0.24000
H3003       H  0.80439223  0.77995966  0.06337932     0.05200
H3004       H  0.82268094  0.75035928  0.03894937     0.08400
H3005       H  0.84265935  0.76389909  0.07412972     0.08400
H3006       H  0.73617005  0.67005929  0.15256717     0.08400
H3007       H  0.77535217  0.65417098  0.16210860     0.08400
H3008       H  0.75392908  0.64067312  0.12825269     0.05200
C3009       C  0.70823364  0.74774014  0.09297498    -0.20600
C3010       C  0.70769886  0.77082372  0.11736038    -0.07200
C3011       C  0.70962744  0.80321445  0.10848872     0.13700
C3012       C  0.70973312  0.81131331  0.07616450    -0.20700
C3013       C  0.70699423  0.78834286  0.05216290    -0.07200
C3014       C  0.70745479  0.75612791  0.06063149     0.13600
C3015       C  0.70498243  0.73066928  0.03569251    -0.24000
H3016       H  0.70770618  0.72283734  0.09909355     0.14900
H3017       H  0.70916330  0.83612094  0.06950982     0.15000
C3018       C  0.71057352  0.82972936  0.13247763    -0.24000
H3019       H  0.70536681  0.70660988  0.04631407     0.05200
H3020       H  0.72527473  0.73257554  0.01910651     0.08400
H3021       H  0.68248771  0.73333681  0.02219766     0.08400
H3022       H  0.73095514  0.82625460  0.14872166     0.08400
H3023       H  0.68816310  0.83036202  0.14616640     0.08400
H3024       H  0.71340628  0.85326839  0.12108828     0.05200
C3025       C  0.79722180  0.72659933  0.38637470    -0.20600
C3026       C  0.77121065  0.71060227  0.37265938    -0.07200
C3027       C  0.75304105  0.69020882  0.39220065     0.13700
C3028       C  0.76334320  0.68403015  0.42353261    -0.20700
C3029       C  0.79060970  0.69852401  0.43598480    -0.07200
C3030       C  0.80694946  0.72094214  0.41762667     0.13600
C3031       C  0.83530921  0.73834484  0.43079833    -0.24000
H3032       H  0.81066312  0.74334371  0.37235959     0.14900
H3033       H  0.75089328  0.66680680  0.43789292     0.15000
C3034       C  0.72347404  0.67424220  0.38019537    -0.24000
H3035       H  0.84486846  0.75576160  0.41357486     0.05200
H3036       H  0.85448943  0.72132093  0.43667331     0.08400
H3037       H  0.82845120  0.75136338  0.45262785     0.08400
H3038       H  0.72923534  0.65886856  0.35972111     0.08400
H3039       H  0.70583990  0.69238343  0.37291307     0.08400
H3040       H  0.71241739  0.65918861  0.39870032     0.05200
C3041       C  0.73421342  0.78466536  0.41233127    -0.20600
C3042       C  0.71417060  0.79435556  0.38722537    -0.07200
C3043       C  0.68388629  0.80682389  0.39497702     0.13700
C3044       C  0.67535317  0.81006230  0.42702848    -0.20700
C3045       C  0.69608097  0.80185740  0.45193380    -0.07200
C3046       C  0.72571709  0.78834649  0.44438739     0.13600
C3047       C  0.74928639  0.77937725  0.46978471    -0.24000
H3048       H  0.75731505  0.77500201  0.40698689     0.14900
H3049       H  0.65247593  0.82022987  0.43275621     0.15000
C3050       C  0.66069354  0.81826577  0.37012986    -0.24000
H3051       H  0.77170150  0.77026161  0.45954285     0.05200
H3052       H  0.73931294  0.76045062  0.48502113     0.08400
H3053       H  0.75514455  0.80043112  0.48446616     0.08400
H3054       H  0.65359618  0.79842270  0.35439763     0.08400
H3055       H  0.67154580  0.83753505  0.35593353     0.08400
H3056       H  0.63868347  0.82788987  0.38084848     0.05200
C3057       C  0.88838575  0.76055170  0.28300700    -0.20600
C3058       C  0.86879409  0.77821610  0.26250068    -0.07200
C3059       C  0.88286638  0.80161387  0.24290014     0.13700
C3060       C  0.91537523  0.80821447  0.24623682    -0.20700
C3061       C  0.93420475  0.79172063  0.26809916    -0.07200
C3062       C  0.92088696  0.76676629  0.28569569     0.13600
C3063       C  0.94079584  0.74782028  0.30861981    -0.24000
H3064       H  0.87811656  0.74227861  0.29775945     0.14900
H3065       H  0.92569039  0.82788868  0.23338972     0.15000
C3066       C  0.86366056  0.82127407  0.22003477    -0.24000
H3067       H  0.92674087  0.72917680  0.32066430     0.05200
H3068       H  0.95088817  0.76355173  0.32719864     0.08400
H3069       H  0.96041678  0.73614778  0.29557176     0.08400
H3070       H  0.84460308  0.83380485  0.23307708     0.08400
H3071       H  0.85322913  0.80589875  0.20135002     0.08400
H3072       H  0.87835707  0.83940583  0.20795300     0.05200
C3073       C  0.89501091  0.71075789  0.18920932    -0.20600
C3074       C  0.88915103  0.69695945  0.21902348    -0.07200
C3075       C  0.91558687  0.68699758  0.23758522     0.13700
C3076       C  0.94654697  0.69044495  0.22570185    -0.20700
C3077       C  0.95223222  0.70312047  0.19558465    -0.07200
C3078       C  0.92613454  0.71374995  0.17726600     0.13600
C3079       C  0.93121843  0.72808800  0.14496911    -0.24000
H3080       H  0.87516186  0.71911672  0.17512243     0.14900
H3081       H  0.96643799  0.68130224  0.23924130     0.15000
C3082       C  0.91150542  0.67068467  0.26914793    -0.24000
H3083       H  0.90853783  0.73579113  0.13395573     0.05200
H3084       H  0.94244553  0.71053151  0.12893540     0.08400
H3085       H  0.94688337  0.74910649  0.14714986     0.08400
H3086       H  0.89558118  0.64993290  0.26636964     0.08400
H3087       H  0.90152675  0.68728929  0.28685331     0.08400
H3088       H  0.93442865  0.66204513  0.27886045     0.05200
C3089       C  0.70777641  0.87132512  0.22870417    -0.20600
C3090       C  0.73446137  0.85690043  0.21478255    -0.07200
C3091       C  0.75485324  0.87615242  0.19619748     0.13700
C3092       C  0.74630781  0.90805835  0.18986770    -0.20700
C3093       C  0.71850206  0.92139617  0.20249596    -0.07200
C3094       C  0.69977238  0.90297902  0.22306998     0.13600
C3095       C  0.67087916  0.91662737  0.23911390    -0.24000
H3096       H  0.69247220  0.85761924  0.24403801     0.14900
H3097       H  0.76074712  0.92225398  0.17413596     0.15000
C3098       C  0.78540905  0.86347578  0.18294378    -0.24000
H3099       H  0.66002984  0.89954244  0.25589326     0.05200
H3100       H  0.65253398  0.92293536  0.22130505     0.08400
H3101       H  0.67767083  0.93809060  0.25277088     0.08400
H3102       H  0.78077084  0.84319677  0.16686319     0.08400
H3103       H  0.80096225  0.85570116  0.20271963     0.08400
H3104       H  0.79837259  0.88177983  0.16924683     0.05200
C3105       C  0.81717477  0.88768723  0.29089753    -0.20600
C3106       C  0.78586869  0.87986814  0.29899539    -0.07200
C3107       C  0.76510346  0.90469867  0.30871967     0.13700
C3108       C  0.77653604  0.93591703  0.31106735    -0.20700
C3109       C  0.80817157  0.94321756  0.30467336    -0.07200
C3110       C  0.82856896  0.91894158  0.29375046     0.13600
C3111       C  0.86248550  0.92597846  0.28521797    -0.24000
H3112       H  0.83301653  0.86914881  0.28288371     0.14900
H3113       H  0.76119242  0.95444960  0.32005686     0.15000
C3114       C  0.73136799  0.89855971  0.31881132    -0.24000
H3115       H  0.87479165  0.90466478  0.27589944     0.05200
H3116       H  0.87575451  0.93429720  0.30640881     0.08400
H3117       H  0.86314829  0.94457612  0.26661820     0.08400
H3118       H  0.73093587  0.88058573  0.33803832     0.08400
H3119       H  0.71707547  0.89029776  0.29827607     0.08400
H3120       H  0.71973685  0.92029084  0.32802219     0.05200
C3121       C  0.72662054  0.60746284  0.21701449    -0.20600
C3122       C  0.71979059  0.62247600  0.24605176    -0.07200
C3123       C  0.71026686  0.60345133  0.27210807     0.13700
C3124       C  0.70550113  0.57068944  0.26759477    -0.20700
C3125       C  0.71044791  0.55657463  0.23792237    -0.07200
C3126       C  0.72223109  0.57496749  0.21268904     0.13600
C3127       C  0.72988254  0.56040848  0.18086094    -0.24000
H3128       H  0.73491470  0.62130411  0.19708651     0.14900
H3129       H  0.69646449  0.55632788  0.28684939     0.15000
C3130       C  0.70527283  0.61719490  0.30463929    -0.24000
H3131       H  0.74062393  0.57791078  0.16443794     0.05200
H3132       H  0.70810243  0.55122957  0.16929904     0.08400
H3133       H  0.74701798  0.54070345  0.18411589     0.08400
H3134       H  0.68583126  0.63489579  0.30401750     0.08400
H3135       H  0.72757370  0.62848700  0.31284437     0.08400
H3136       H  0.69879952  0.59871887  0.32220312     0.05200
C3137       C  0.79442566  0.58046233  0.27422117    -0.20600
C3138       C  0.79879473  0.60559026  0.29624583    -0.07200
C3139       C  0.80108492  0.59742853  0.32882313     0.13700
C3140       C  0.80036093  0.56518468  0.33797237    -0.20700
C3141       C  0.79706868  0.54030622  0.31579130    -0.07200
C3142       C  0.79378653  0.54831159  0.28346294     0.13600
C3143       C  0.79141494  0.52297959  0.25838689    -0.24000
H3144       H  0.79218307  0.58576367  0.24917146     0.14900
H3145       H  0.80326480  0.55921960  0.36283532     0.15000
C3146       C  0.80461098  0.62226828  0.35426003    -0.24000
H3147       H  0.78948114  0.53315950  0.23415998     0.05200
H3148       H  0.77007013  0.50833076  0.26262126     0.08400
H3149       H  0.81279834  0.50765948  0.25919234     0.08400
H3150       H  0.78409989  0.63866932  0.35345758     0.08400
H3151       H  0.82694200  0.63567219  0.35076667     0.08400
H3152       H  0.80541599  0.61167688  0.37834844     0.05200
C3153       C  0.61641695  0.77419290  0.26835822    -0.20600
C3154       C  0.63462250  0.75664027  0.29022659    -0.07200
C3155       C  0.61975210  0.74578662  0.31830511     0.13700
C3156       C  0.58799933  0.75468397  0.32454456    -0.20700
C3157       C  0.57057173  0.77347913  0.30308827    -0.07200
C3158       C  0.58486100  0.78256890  0.27435466     0.13600
C3159       C  0.56751679  0.80338387  0.25098631    -0.24000
H3160       H  0.62739425  0.78291401  0.24690188     0.14900
H3161       H  0.57738951  0.74861649  0.34711857     0.15000
C3162       C  0.63772008  0.72673399  0.34264663    -0.24000
H3163       H  0.58170702  0.80776721  0.22928420     0.05200
H3164       H  0.56207844  0.82663300  0.26202555     0.08400
H3165       H  0.54501496  0.79184468  0.24382439     0.08400
H3166       H  0.65882768  0.74010753  0.35095192     0.08400
H3167       H  0.64544215  0.70392714  0.33207549     0.08400
H3168       H  0.62287473  0.72129476  0.36365554     0.05200
C3169       C  0.59254319  0.72666467  0.20119522    -0.20600
C3170       C  0.61540848  0.70294115  0.20727776    -0.07200
C3171       C  0.60485439  0.67156668  0.21277599     0.13700
C3172       C  0.57224289  0.66475705  0.21036038    -0.20700
C3173       C  0.54984778  0.68853276  0.20365093    -0.07200
C3174       C  0.56011833  0.71989936  0.19947978     0.13600
C3175       C  0.53707794  0.74602817  0.19152241    -0.24000
H3176       H  0.60000397  0.75083764  0.19698676     0.14900
H3177       H  0.56414256  0.64055783  0.21311955     0.15000
C3178       C  0.62740993  0.64525846  0.22157181    -0.24000
H3179       H  0.51981795  0.74879973  0.21111843     0.05200
H3180       H  0.52416010  0.74024587  0.16926035     0.08400
H3181       H  0.54921844  0.76908470  0.18805727     0.08400
H3182       H  0.64089529  0.65185102  0.24328377     0.08400
H3183       H  0.64406216  0.64062352  0.20178449     0.08400
H3184       H  0.61468726  0.62279852  0.22656733     0.05200
C3185       C  0.76925213  0.91711089  0.69882727    -0.20600
C3186       C  0.78606872  0.93539966  0.72055186    -0.07200
C3187       C  0.79882108  0.92115579  0.74804926     0.13700
C3188       C  0.79309436  0.88876225  0.75386918    -0.20700
C3189       C  0.77622881  0.87010548  0.73190661    -0.07200
C3190       C  0.76475036  0.88473638  0.70337135     0.13600
C3191       C  0.74840118  0.86712805  0.67654282    -0.24000
H3192       H  0.76049571  0.92828141  0.67732013     0.14900
H3193       H  0.80252062  0.87785201  0.77516472     0.15000
C3194       C  0.81973909  0.93971785  0.77025498    -0.24000
H3195       H  0.74246425  0.88283450  0.65623333     0.05200
H3196       H  0.72570879  0.85689622  0.68473980     0.08400
H3197       H  0.76421451  0.84836422  0.66706144     0.08400
H3198       H  0.80675155  0.96047823  0.77976178     0.08400
H3199       H  0.84092184  0.94820995  0.75724374     0.08400
H3200       H  0.82791194  0.92505536  0.79056735     0.05200
C3201       C  0.70749941  0.90898299  0.78168718    -0.20600
C3202       C  0.68268203  0.88698094  0.78019395    -0.07200
C3203       C  0.65162079  0.89709925  0.78712380     0.13700
C3204       C  0.64622722  0.92861736  0.79649337    -0.20700
C3205       C  0.67105617  0.95082660  0.79871085    -0.07200
C3206       C  0.70218723  0.94072089  0.79083761     0.13600
C3207       C  0.73015972  0.96273779  0.79280655    -0.24000
H3208       H  0.73120329  0.90118854  0.77588226     0.14900
H3209       H  0.62225216  0.93598580  0.80191573     0.15000
C3210       C  0.62394750  0.87481445  0.78367501    -0.24000
H3211       H  0.75259082  0.95015229  0.78777543     0.05200
H3212       H  0.73206651  0.97287942  0.81705596     0.08400
H3213       H  0.72766118  0.98198787  0.77505177     0.08400
H3214       H  0.62675461  0.85460783  0.80026476     0.08400
H3215       H  0.62278240  0.86575146  0.75893599     0.08400
H3216       H  0.60108886  0.88667929  0.78900654     0.05200
C3217       C  0.90383262  0.70205874  0.80365294    -0.20600
C3218       C  0.92556477  0.72714631  0.80444806    -0.07200
C3219       C  0.91360797  0.75843135  0.80156614     0.13700
C3220       C  0.88060967  0.76335928  0.79649072    -0.20700
C3221       C  0.85893524  0.73789150  0.79603170    -0.07200
C3222       C  0.87109703  0.70690790  0.80144564     0.13600
C3223       C  0.85024159  0.67875556  0.80856254    -0.24000
H3224       H  0.91248238  0.67806004  0.80663165     0.14900
H3225       H  0.87177301  0.78716464  0.79274348     0.15000
C3226       C  0.93511464  0.78659691  0.80526004    -0.24000
H3227       H  0.86411869  0.65658337  0.81149430     0.05200
H3228       H  0.83275060  0.67410879  0.78977954     0.08400
H3229       H  0.83804281  0.68285231  0.83130300     0.08400
H3230       H  0.95344662  0.78651878  0.78654389     0.08400
H3231       H  0.94683134  0.78582773  0.82888684     0.08400
H3232       H  0.92180965  0.80922320  0.80342356     0.05200
C3233       C  0.90466368  0.77205755  0.71727348    -0.20600
C3234       C  0.87965835  0.79343057  0.71104375    -0.07200
C3235       C  0.88721903  0.82591259  0.70682469     0.13700
C3236       C  0.91919120  0.83544389  0.70776801    -0.20700
C3237       C  0.94404525  0.81363260  0.71238882    -0.07200
C3238       C  0.93648241  0.78154154  0.71745799     0.13600
C3239       C  0.96176631  0.75666571  0.72096069    -0.24000
H3240       H  0.89956052  0.74719827  0.72095416     0.14900
H3241       H  0.92496907  0.86013132  0.70376269     0.15000
C3242       C  0.86222147  0.85078529  0.70087618    -0.24000
H3243       H  0.95161569  0.73259071  0.72395642     0.05200
H3244       H  0.97647659  0.76177982  0.74215601     0.08400
H3245       H  0.97696977  0.75640709  0.69951140     0.08400
H3246       H  0.84520854  0.85123629  0.72088783     0.08400
H3247       H  0.84955088  0.84573755  0.67830069     0.08400
H3248       H  0.87260999  0.87485928  0.69881276     0.05200
C3249       C  0.67927920  0.80291431  0.90778758    -0.20600
C3250       C  0.70126103  0.79741679  0.93228888    -0.07200
C3251       C  0.73270215  0.78908946  0.92348858     0.13700
C3252       C  0.74071250  0.78637965  0.89080271    -0.20700
C3253       C  0.71832943  0.79216397  0.86651965    -0.07200
C3254       C  0.68735929  0.80147621  0.87566580     0.13600
C3255       C  0.66287903  0.81298785  0.85227373    -0.24000
H3256       H  0.65520159  0.80947231  0.91366539     0.14900
H3257       H  0.76433319  0.77882917  0.88421291     0.15000
C3258       C  0.75793031  0.78309921  0.94809009    -0.24000
H3259       H  0.63961044  0.81761014  0.86361385     0.05200
H3260       H  0.65847520  0.79559953  0.83320367     0.08400
H3261       H  0.67097552  0.83594189  0.84263504     0.08400
H3262       H  0.75092111  0.76296004  0.96341747     0.08400
H3263       H  0.76136132  0.80461895  0.96285759     0.08400
H3264       H  0.78102079  0.77702814  0.93707076     0.05200
C3265       C  0.80660140  0.70494459  0.89760895    -0.20600
C3266       C  0.77405315  0.70473081  0.89043251    -0.07200
C3267       C  0.75213096  0.70219423  0.91613451     0.13700
C3268       C  0.76356059  0.69807308  0.94727593    -0.20700
C3269       C  0.79599201  0.69604263  0.95372182    -0.07200
C3270       C  0.81780891  0.70042191  0.92873146     0.13600
C3271       C  0.85303371  0.70071948  0.93479772    -0.24000
H3272       H  0.82355608  0.70820247  0.87870103     0.14900
H3273       H  0.74699529  0.69490859  0.96662989     0.15000
C3274       C  0.71661539  0.70254833  0.91150736    -0.24000
H3275       H  0.86655586  0.70622800  0.91291868     0.05200
H3276       H  0.86110312  0.67722731  0.94335277     0.08400
H3277       H  0.85881415  0.71903777  0.95282962     0.08400
H3278       H  0.70932391  0.68268429  0.89583064     0.08400
H3279       H  0.70895408  0.72546078  0.90115431     0.08400
H3280       H  0.70374003  0.69977441  0.93428674     0.05200
C3281       C  0.60688697  0.70161250  0.74000733    -0.20600
C3282       C  0.62734218  0.70986605  0.76520720    -0.07200
C3283       C  0.61466512  0.71109659  0.79659653     0.13700
C3284       C  0.58290348  0.70386195  0.80154433    -0.20700
C3285       C  0.56284423  0.69445032  0.77687754    -0.07200
C3286       C  0.57470352  0.69380130  0.74555705     0.13600
C3287       C  0.55381307  0.68401208  0.71833581    -0.24000
H3288       H  0.61604458  0.70125159  0.71602233     0.14900
H3289       H  0.57363579  0.70468117  0.82552080     0.15000
C3290       C  0.63392118  0.71932982  0.82586758    -0.24000
H3291       H  0.56680741  0.68440004  0.69546608     0.05200
H3292       H  0.53341850  0.70052596  0.71641503     0.08400
H3293       H  0.54491607  0.65960432  0.72232354     0.08400
H3294       H  0.64161359  0.74434417  0.82490505     0.08400
H3295       H  0.65459673  0.70331783  0.82803319     0.08400
H3296       H  0.62011470  0.71681768  0.84811394     0.05200
C3297       C  0.54871505  0.79340366  0.71515155    -0.20600
C3298       C  0.54340773  0.79738176  0.68270646    -0.07200
C3299       C  0.56969727  0.79750983  0.66184559     0.13700
C3300       C  0.60066165  0.79572869  0.67430238    -0.20700
C3301       C  0.60628829  0.79419686  0.70718779    -0.07200
C3302       C  0.57948928  0.79231826  0.72786261     0.13600
C3303       C  0.58223194  0.79080247  0.76359319    -0.24000
H3304       H  0.52852085  0.79347238  0.73099596     0.14900
H3305       H  0.62058106  0.79655395  0.65818048     0.15000
C3306       C  0.56528688  0.79935687  0.62635142    -0.24000
H3307       H  0.55873623  0.79015588  0.77535734     0.05200
H3308       H  0.59476207  0.81204362  0.77266999     0.08400
H3309       H  0.59493284  0.76902863  0.77079803     0.08400
H3310       H  0.55521992  0.82260996  0.61944791     0.08400
H3311       H  0.54920242  0.78012927  0.61832951     0.08400
H3312       H  0.58812570  0.79660077  0.61360915     0.05200
C3313       C  0.74352863  0.61261868  0.71585407    -0.20600
C3314       C  0.76798955  0.63534911  0.71748745    -0.07200
C3315       C  0.79992756  0.62446125  0.71689290     0.13700
C3316       C  0.80619730  0.59208009  0.71489437    -0.20700
C3317       C  0.78213739  0.56935216  0.71310606    -0.07200
C3318       C  0.75020705  0.57972958  0.71377904     0.13600
C3319       C  0.72326199  0.55651301  0.71156399    -0.24000
H3320       H  0.71912583  0.62053189  0.71692340     0.14900
H3321       H  0.83068003  0.58433383  0.71474860     0.15000
C3322       C  0.82832478  0.64624482  0.71798278    -0.24000
H3323       H  0.69991030  0.56864760  0.71208232     0.05200
H3324       H  0.72416572  0.53986029  0.73187474     0.08400
H3325       H  0.72494978  0.54294373  0.68905711     0.08400
H3326       H  0.82948087  0.65882686  0.74080477     0.08400
H3327       H  0.82740348  0.66351191  0.69847194     0.08400
H3328       H  0.85106736  0.63322766  0.71554793     0.05200
C3329       C  0.72951433  0.59161029  0.79787009    -0.20600
C3330       C  0.70763501  0.61655488  0.79343290    -0.07200
C3331       C  0.67581773  0.60870094  0.78587170     0.13700
C3332       C  0.66632925  0.57681606  0.78639640    -0.20700
C3333       C  0.68762396  0.55237033  0.79391471    -0.07200
C3334       C  0.71987509  0.55975218  0.79835250     0.13600
C3335       C  0.74385648  0.53427493  0.80520627    -0.24000
H3336       H  0.75420958  0.59701899  0.80240929     0.14900
H3337       H  0.64156181  0.57099597  0.78271426     0.15000
C3338       C  0.65153718  0.63342521  0.77730718    -0.24000
H3339       H  0.76812990  0.54407788  0.80795168     0.05200
H3340       H  0.74410985  0.51716939  0.78521392     0.08400
H3341       H  0.73761726  0.52171481  0.82745936     0.08400
H3342       H  0.62854888  0.62269027  0.77021539     0.08400
H3343       H  0.64689348  0.64891988  0.79801961     0.08400
H3344       H  0.66018191  0.64764798  0.75696486    -0.26000
C3345       C  0.73126825  0.78577935  0.61496271    -0.20600
C3346       C  0.70988126  0.76654416  0.63184727    -0.07200
C3347       C  0.68175781  0.75658221  0.61635578     0.13700
C3348       C  0.67471395  0.76826525  0.58562551    -0.20700
C3349       C  0.69571511  0.78861935  0.56968857    -0.07200
C3350       C  0.72480123  0.79640894  0.58411729     0.13600
C3351       C  0.74860944  0.81703699  0.56738485    -0.24000
H3352       H  0.75285270  0.79369333  0.62640877     0.14900
H3353       H  0.65235354  0.76229045  0.57440464     0.15000
C3354       C  0.65858568  0.73493184  0.63254807    -0.24000
H3355       H  0.77026016  0.82080533  0.58197166     0.05200
H3356       H  0.73802568  0.84054141  0.56213805     0.08400
H3357       H  0.75583287  0.80556930  0.54482893     0.08400
H3358       H  0.65039116  0.74572534  0.65509012     0.08400
H3359       H  0.67019365  0.71190003  0.63772718     0.08400
H3360       H  0.63747519  0.73025638  0.61744086     0.05200
C3361       C  0.80519848  0.73728432  0.59349981    -0.20600
C3362       C  0.79975761  0.71472463  0.61764963    -0.07200
C3363       C  0.79596041  0.68256803  0.60872478     0.13700
C3364       C  0.79944003  0.67385264  0.57662478    -0.20700
C3365       C  0.80558323  0.69641956  0.55296205    -0.07200
C3366       C  0.80799102  0.72859503  0.56145921     0.13600
C3367       C  0.81482289  0.75369995  0.53699472    -0.24000
H3368       H  0.80781249  0.76206187  0.59969347     0.14900
H3369       H  0.79758528  0.64913192  0.56990212     0.15000
C3370       C  0.78767801  0.65732749  0.63247668    -0.24000
H3371       H  0.83742597  0.74827214  0.52471981     0.05200
H3372       H  0.81694742  0.77758628  0.54785142     0.08400
H3373       H  0.79529208  0.75456433  0.51932811     0.08400
H3374       H  0.76590163  0.66409953  0.64555730     0.08400
H3375       H  0.80763048  0.65403773  0.64921822     0.08400
H3376       H  0.78322366  0.63411482  0.62088145     0.05200
loop_ 
_geom_bond_atom_site_label_1 
_geom_bond_atom_site_label_2 
_geom_bond_distance 
_geom_bond_site_symmetry_2 
_ccdc_geom_bond_type 
O1           C28   1.278       .  A
O1          Mn27   2.128       .  S
C2           O35   1.276       .  A
C2           O32   1.264       .  A
C2         C3362   1.499       .  S
O3          Mn10   2.187       .  S
O3          Mn21   2.108       .  S
O3          Mn25   2.181       .  S
O3          Mn27   2.113       .  S
O4           C14   1.269       .  A
O4          Mn38   2.078       .  S
O5           C28   1.262       .  A
O5          Mn21   2.067       .  S
O6           C33   1.263       .  A
O6          Mn25   2.157       .  S
O7          Mn38   1.970       .  S
O7          Mn27   1.961       .  S
O7           C23   1.215       .  S
C8           O11   1.262       .  A
C8         C3189   1.492       .  S
C8           O34   1.231       .  A
O9          Mn29   2.122       .  S
O9          Mn10   2.192       .  S
O9          Mn43   2.100       .  S
O9          Mn25   2.196       .  S
Mn10         O39   2.147       .  S
Mn10         O15   2.161       .  S
Mn10         O42   2.154       .  S
Mn10         O16   2.187       .  S
O11         Mn25   2.154       .  S
O12          C14   1.273       .  A
O12         Mn19   2.107       .  S
C13          O39   1.260       .  A
C13        C3346   1.497       .  S
C13          O26   1.216       .  S
C14        C3234   1.500       .  S
O15          C40   1.259       .  A
O16         Mn19   2.111       .  S
O16         Mn38   2.110       .  S
O16         Mn25   2.184       .  S
O17         Mn21   2.001       .  S
O17         Mn43   2.000       .  S
O17          C40   1.232       .  A
C18          O44   1.268       .  A
C18          O20   1.270       .  A
C18        C3202   1.484       .  S
Mn19         O32   2.066       .  S
Mn19         O34   2.006       .  S
Mn19         O26   1.974       .  S
O20         Mn43   2.099       .  S
Mn21         O37   2.116       .  S
Mn21         O31   1.987       .  S
O22          C24   1.268       .  A
O22         Mn27   2.080       .  S
C23          O41   1.263       .  A
C23        C3221   1.508       .  S
C24          O37   1.274       .  A
C24        C3330   1.497       .  S
Mn25         O41   2.164       .  S
O26         Mn29   1.975       .  S
Mn27         O45   1.955       .  S
C28        C3266   1.502       .  S
Mn29         O36   2.120       .  S
Mn29         O44   2.101       .  S
Mn29         O34   2.013       .  S
C30          O36   1.277       .  A
C30          O46   1.263       .  A
C30        C3301   1.503       .  S
O31         Mn43   1.986       .  S
O31          C33   1.218       .  S
C33        C3253   1.506       .  S
O35         Mn38   2.134       .  S
Mn38         O45   1.950       .  S
C40        C3282   1.495       .  S
O42          C47   1.262       .  A
Mn43         O46   2.067       .  S
O45          C47   1.213       .  S
C47        C3314   1.499       .  S
O48          C75   1.278       .  A
O48         Mn74   2.131       .  S
C49          O82   1.275       .  A
C49          O79   1.268       .  A
C49        C3170   1.494       .  S
O50         Mn57   2.179       .  S
O50         Mn68   2.113       .  S
O50         Mn72   2.182       .  S
O50         Mn74   2.105       .  S
O51          C61   1.272       .  A
O51         Mn85   2.097       .  S
O52          C75   1.268       .  A
O52         Mn68   2.090       .  S
O53          C80   1.254       .  A
O53         Mn72   2.085       .  S
O54         Mn85   2.006       .  S
O54         Mn74   2.004       .  S
O54          C70   1.228       .  A
C55          O58   1.256       .  A
C55        C3090   1.506       .  S
C55          O81   1.218       .  S
O56         Mn76   2.116       .  S
O56         Mn57   2.164       .  S
O56         Mn90   2.120       .  S
O56         Mn72   2.173       .  S
Mn57         O86   2.131       .  S
Mn57         O62   2.131       .  S
Mn57         O89   2.117       .  S
Mn57         O63   2.168       .  S
O58         Mn72   2.139       .  S
O59          C61   1.274       .  A
O59         Mn66   2.102       .  S
C60          O86   1.259       .  A
C60        C3154   1.499       .  S
C60          O73   1.222       .  S
C61        C3010   1.503       .  S
O62          C87   1.255       .  A
O63         Mn66   2.098       .  S
O63         Mn85   2.109       .  S
O63         Mn72   2.163       .  S
O64         Mn68   1.958       .  S
O64         Mn90   1.956       .  S
O64          C87   1.217       .  S
C65          O91   1.268       .  A
C65          O67   1.280       .  A
C65        C3106   1.499       .  S
Mn66         O79   2.075       .  S
Mn66         O81   1.961       .  S
Mn66         O73   1.963       .  S
O67         Mn90   2.125       .  S
Mn68         O84   2.153       .  S
Mn68         O78   1.985       .  S
O69          C71   1.267       .  A
O69         Mn74   2.078       .  S
C70          O88   1.258       .  A
C70        C2994   1.495       .  S
C71          O84   1.283       .  A
C71        C3138   1.519       .  S
Mn72         O88   2.158       .  S
O73         Mn76   1.973       .  S
Mn74         O92   1.980       .  S
C75        C3074   1.502       .  S
Mn76         O83   2.095       .  S
Mn76         O91   2.085       .  S
Mn76         O81   1.944       .  S
C77          O83   1.273       .  A
C77          O93   1.275       .  A
C77        C3042   1.502       .  S
O78         Mn90   1.995       .  S
O78          C80   1.228       .  S
C80        C3058   1.491       .  S
O82         Mn85   2.107       .  S
Mn85         O92   1.987       .  S
C87        C3026   1.497       .  S
O89          C94   1.255       .  A
Mn90         O93   2.107       .  S
O92          C94   1.218       .  S
C94        C3122   1.494       .  S
O95         C122   1.272       .  A
O95        Mn121   2.098       .  S
C96         O129   1.279       .  A
C96         O126   1.264       .  A
C96        C2978   1.506       .  S
O97        Mn104   2.183       .  S
O97        Mn115   2.114       .  S
O97        Mn119   2.171       .  S
O97        Mn121   2.104       .  S
O98         C108   1.262       .  A
O98        Mn132   2.060       .  S
O99         C122   1.275       .  A
O99        Mn115   2.107       .  S
O100        C127   1.258       .  A
O100       Mn119   2.117       .  S
O101       Mn132   1.979       .  S
O101       Mn121   1.983       .  S
O101        C117   1.220       .  S
C102        O105   1.260       .  A
C102       C2898   1.503       .  S
C102        O128   1.210       .  S
O103       Mn123   2.089       .  S
O103       Mn104   2.182       .  S
O103       Mn137   2.126       .  S
O103       Mn119   2.162       .  S
Mn104       O133   2.175       .  S
Mn104       O109   2.112       .  S
Mn104       O136   2.159       .  S
Mn104       O110   2.164       .  S
O105       Mn119   2.161       .  S
O106        C108   1.274       .  A
O106       Mn113   2.124       .  S
C107        O133   1.262       .  A
C107       C2962   1.502       .  S
C107        O120   1.208       .  S
C108       C2818   1.487       .  S
O109        C134   1.258       .  A
O110       Mn113   2.077       .  S
O110       Mn132   2.104       .  S
O110       Mn119   2.173       .  S
O111       Mn115   1.977       .  S
O111       Mn137   1.972       .  S
O111        C134   1.226       .  S
C112        O138   1.264       .  A
C112        O114   1.282       .  A
C112       C2914   1.506       .  S
Mn113       O126   2.074       .  S
Mn113       O128   1.951       .  S
Mn113       O120   1.952       .  S
O114       Mn137   2.136       .  S
Mn115       O131   2.134       .  S
Mn115       O125   1.977       .  S
O116        C118   1.269       .  A
O116       Mn121   2.100       .  S
C117        O135   1.258       .  A
C117       C2805   1.497       .  S
C118        O131   1.278       .  A
C118       C2946   1.516       .  S
Mn119       O135   2.128       .  S
O120       Mn123   1.950       .  S
Mn121       O139   2.012       .  S
C122       C2882   1.504       .  S
Mn123       O130   2.118       .  S
Mn123       O138   2.068       .  S
Mn123       O128   1.955       .  S
C124        O130   1.275       .  A
C124        O140   1.268       .  A
C124       C2850   1.491       .  S
O125       Mn137   1.974       .  S
O125        C127   1.223       .  S
C127       C2866   1.506       .  S
O129       Mn132   2.127       .  S
Mn132       O139   2.010       .  S
C134       C2834   1.500       .  S
O136        C141   1.261       .  A
Mn137       O140   2.079       .  S
O139        C141   1.230       .  A
C141       C2930   1.494       .  S
O142        C169   1.270       .  A
O142       Mn168   2.076       .  S
C143        O176   1.267       .  A
C143        O173   1.261       .  A
C143       C2786   1.476       .  S
O144       Mn151   2.181       .  S
O144       Mn162   2.125       .  S
O144       Mn166   2.189       .  S
O144       Mn168   2.117       .  S
O145        C155   1.270       .  A
O145       Mn179   2.086       .  S
O146        C169   1.266       .  A
O146       Mn162   2.077       .  S
O147        C174   1.261       .  A
O147       Mn166   2.163       .  S
O148       Mn179   1.946       .  S
O148       Mn168   1.966       .  S
O148        C164   1.222       .  S
C149        O152   1.265       .  A
C149       C2642   1.509       .  S
C149        O175   1.231       .  A
O150       Mn170   2.118       .  S
O150       Mn151   2.169       .  S
O150       Mn184   2.109       .  S
O150       Mn166   2.181       .  S
Mn151       O180   2.182       .  S
Mn151       O156   2.171       .  S
Mn151       O183   2.160       .  S
Mn151       O157   2.189       .  S
O152       Mn166   2.185       .  S
O153        C155   1.276       .  A
O153       Mn160   2.114       .  S
C154        O180   1.270       .  A
C154       C2770   1.549       .  S
C154        O167   1.226       .  S
C155       C2690   1.504       .  S
O156        C181   1.269       .  A
O157       Mn160   2.098       .  S
O157       Mn179   2.128       .  S
O157       Mn166   2.184       .  S
O158       Mn162   1.961       .  S
O158       Mn184   1.954       .  S
O158        C181   1.218       .  S
C159        O185   1.270       .  A
C159        O161   1.274       .  A
C159       C2661   1.504       .  S
Mn160       O173   2.048       .  S
Mn160       O175   1.998       .  S
Mn160       O167   2.006       .  S
O161       Mn184   2.110       .  S
Mn162       O178   2.108       .  S
Mn162       O172   1.961       .  S
O163        C165   1.272       .  A
O163       Mn168   2.091       .  S
C164        O182   1.262       .  A
C164       C2677   1.513       .  S
C165        O178   1.275       .  A
C165       C2754   1.501       .  S
Mn166       O182   2.143       .  S
O167       Mn170   2.007       .  S
Mn168       O186   1.951       .  S
C169       C2626   1.484       .  S
Mn170       O177   2.086       .  S
Mn170       O185   2.088       .  S
Mn170       O175   1.992       .  S
C171        O177   1.271       .  A
C171        O187   1.270       .  A
C171       C2722   1.464       .  S
O172       Mn184   1.983       .  S
O172        C174   1.222       .  S
C174       C2610   1.531       .  S
O176       Mn179   2.089       .  S
Mn179       O186   1.952       .  S
C181       C2706   1.510       .  S
O183        C188   1.263       .  A
Mn184       O187   2.091       .  S
O186        C188   1.215       .  S
C188       C2738   1.512       .  S
O189        C216   1.279       .  A
O189       Mn215   2.134       .  S
C190        O223   1.277       .  A
C190        O220   1.262       .  A
C190       C2594   1.487       .  S
O191       Mn198   2.172       .  S
O191       Mn209   2.103       .  S
O191       Mn213   2.183       .  S
O191       Mn215   2.102       .  S
O192        C202   1.272       .  A
O192       Mn226   2.085       .  S
O193        C216   1.271       .  A
O193       Mn209   2.098       .  S
O194        C221   1.258       .  A
O194       Mn213   2.147       .  S
O195       Mn226   1.954       .  S
O195       Mn215   1.965       .  S
O195        C211   1.212       .  S
C196        O199   1.262       .  A
C196       C2418   1.507       .  S
C196        O222   1.220       .  S
O197       Mn217   2.106       .  S
O197       Mn198   2.168       .  S
O197       Mn231   2.089       .  S
O197       Mn213   2.188       .  S
Mn198       O227   2.127       .  S
Mn198       O203   2.133       .  S
Mn198       O230   2.141       .  S
Mn198       O204   2.170       .  S
O199       Mn213   2.133       .  S
O200        C202   1.276       .  A
O200       Mn207   2.109       .  S
C201        O227   1.258       .  A
C201       C2578   1.505       .  S
C201        O214   1.220       .  S
C202       C2530   1.498       .  S
O203        C228   1.259       .  A
O204       Mn207   2.106       .  S
O204       Mn226   2.101       .  S
O204       Mn213   2.161       .  S
O205       Mn209   1.986       .  S
O205       Mn231   1.977       .  S
O205        C228   1.219       .  S
C206        O232   1.265       .  A
C206        O208   1.272       .  A
C206       C2434   1.491       .  S
Mn207       O220   2.066       .  S
Mn207       O222   1.967       .  S
Mn207       O214   1.962       .  S
O208       Mn231   2.112       .  S
Mn209       O225   2.085       .  S
Mn209       O219   1.997       .  S
O210        C212   1.275       .  A
O210       Mn215   2.109       .  S
C211        O229   1.262       .  A
C211       C2517   1.509       .  S
C212        O225   1.271       .  A
C212       C2469   1.500       .  S
Mn213       O229   2.163       .  S
O214       Mn217   1.965       .  S
Mn215       O233   1.961       .  S
C216       C2498   1.517       .  S
Mn217       O224   2.117       .  S
Mn217       O232   2.081       .  S
Mn217       O222   1.961       .  S
C218        O224   1.276       .  A
C218        O234   1.270       .  A
C218       C2562   1.505       .  S
O219       Mn231   2.005       .  S
O219        C221   1.229       .  A
C221       C2482   1.489       .  S
O223       Mn226   2.118       .  S
Mn226       O233   1.961       .  S
C228       C2546   1.493       .  S
O230        C235   1.256       .  A
Mn231       O234   2.089       .  S
O233        C235   1.215       .  S
C235       C2450   1.498       .  S
O236        C263   1.267       .  A
O236       Mn262   2.078       .  S
C237        O270   1.264       .  A
C237        O267   1.264       .  A
C237       C2242   1.446       .  S
O238       Mn245   2.171       .  S
O238       Mn256   2.116       .  S
O238       Mn260   2.184       .  S
O238       Mn262   2.112       .  S
O239        C249   1.274       .  A
O239       Mn273   2.102       .  S
O240        C263   1.268       .  A
O240       Mn256   2.067       .  S
O241        C268   1.264       .  A
O241       Mn260   2.166       .  S
O242       Mn273   1.941       .  S
O242       Mn262   1.960       .  S
O242        C258   1.216       .  S
C243        O246   1.269       .  A
C243       C2357   1.517       .  S
C243        O269   1.225       .  S
O244       Mn264   2.114       .  S
O244       Mn245   2.149       .  S
O244       Mn278   2.092       .  S
O244       Mn260   2.167       .  S
Mn245       O274   2.159       .  S
Mn245       O250   2.197       .  S
Mn245       O277   2.131       .  S
Mn245       O251   2.198       .  S
O246       Mn260   2.162       .  S
O247        C249   1.278       .  A
O247       Mn254   2.112       .  S
C248        O274   1.264       .  A
C248       C2226   1.527       .  S
C248        O261   1.224       .  S
C249       C2402   1.505       .  S
O250        C275   1.272       .  A
O251       Mn254   2.117       .  S
O251       Mn273   2.120       .  S
O251       Mn260   2.165       .  S
O252       Mn256   1.947       .  S
O252       Mn278   1.958       .  S
O252        C275   1.212       .  S
C253        O279   1.263       .  A
C253        O255   1.276       .  A
C253       C2370   1.482       .  S
Mn254       O267   2.065       .  S
Mn254       O269   1.972       .  S
Mn254       O261   1.957       .  S
O255       Mn278   2.121       .  S
Mn256       O272   2.137       .  S
Mn256       O266   1.985       .  S
O257        C259   1.268       .  A
O257       Mn262   2.084       .  S
C258        O276   1.261       .  A
C258       C2386   1.512       .  S
C259        O272   1.283       .  A
C259       C2274   1.510       .  S
Mn260       O276   2.152       .  S
O261       Mn264   1.969       .  S
Mn262       O280   1.951       .  S
C263       C2341   1.485       .  S
Mn264       O271   2.106       .  S
Mn264       O279   2.065       .  S
Mn264       O269   1.975       .  S
C265        O271   1.275       .  A
C265        O281   1.276       .  A
C265       C2306   1.509       .  S
O266       Mn278   2.009       .  S
O266        C268   1.226       .  S
C268       C2322   1.530       .  S
O270       Mn273   2.065       .  S
Mn273       O280   1.960       .  S
C275       C2293   1.523       .  S
O277        C282   1.259       .  A
Mn278       O281   2.121       .  S
O280        C282   1.222       .  S
C282       C2258   1.504       .  S
O283        C310   1.277       .  A
O283       Mn309   2.116       .  S
C284        O317   1.276       .  A
C284        O314   1.271       .  A
C284       C2210   1.501       .  S
O285       Mn292   2.180       .  S
O285       Mn303   2.119       .  S
O285       Mn307   2.195       .  S
O285       Mn309   2.102       .  S
O286        C296   1.268       .  A
O286       Mn320   2.085       .  S
O287        C310   1.266       .  A
O287       Mn303   2.076       .  S
O288        C315   1.267       .  A
O288       Mn307   2.183       .  S
O289       Mn320   2.001       .  S
O289       Mn309   2.010       .  S
O289        C305   1.237       .  A
C290        O293   1.268       .  A
C290       C2034   1.542       .  S
C290        O316   1.227       .  S
O291       Mn311   2.129       .  S
O291       Mn292   2.192       .  S
O291       Mn325   2.107       .  S
O291       Mn307   2.203       .  S
Mn292       O321   2.147       .  S
Mn292       O297   2.139       .  S
Mn292       O324   2.174       .  S
Mn292       O298   2.163       .  S
O293       Mn307   2.177       .  S
O294        C296   1.275       .  A
O294       Mn301   2.099       .  S
C295        O321   1.264       .  A
C295       C2194   1.487       .  S
C295        O308   1.240       .  A
C296       C2082   1.497       .  S
O297        C322   1.258       .  A
O298       Mn301   2.115       .  S
O298       Mn320   2.122       .  S
O298       Mn307   2.185       .  S
O299       Mn303   1.968       .  S
O299       Mn325   1.967       .  S
O299        C322   1.215       .  S
C300        O326   1.260       .  A
C300        O302   1.269       .  A
C300       C2050   1.474       .  S
Mn301       O314   2.084       .  S
Mn301       O308   2.024       .  S
Mn301       O316   2.000       .  S
O302       Mn325   2.089       .  S
Mn303       O319   2.093       .  S
Mn303       O313   2.004       .  S
O304        C306   1.262       .  A
O304       Mn309   2.074       .  S
C305        O323   1.269       .  A
C305       C2069   1.513       .  S
C306        O319   1.268       .  A
C306       C2178   1.463       .  S
Mn307       O323   2.191       .  S
O308       Mn311   2.014       .  S
Mn309       O327   2.007       .  S
C310       C2117   1.499       .  S
Mn311       O318   2.136       .  S
Mn311       O326   2.057       .  S
Mn311       O316   1.983       .  S
C312        O318   1.279       .  A
C312        O328   1.268       .  A
C312       C2146   1.510       .  S
O313       Mn325   2.007       .  S
O313        C315   1.236       .  A
C315       C2101   1.513       .  S
O317       Mn320   2.108       .  S
Mn320       O327   2.022       .  S
C322       C2130   1.498       .  S
O324        C329   1.268       .  A
Mn325       O328   2.080       .  S
O327        C329   1.226       .  S
C329       C2162   1.546       .  S
C330       C2338   1.473       .  S
C330        N331   1.364       .  A
C330        N335   1.352       .  A
N331        C332   1.361       .  A
C332       C2021   1.456       .  S
C332        N333   1.349       .  A
N333        C334   1.345       .  A
C334       C2002   1.443       .  S
C334        N335   1.345       .  A
C336       C2325   1.547       .  S
C336        N337   1.395       .  A
C336        N341   1.364       .  A
N337        C338   1.394       .  A
C338       C1973   1.520       .  S
C338        N339   1.353       .  A
N339        C340   1.342       .  A
C340       C1986   1.483       .  S
C340        N341   1.347       .  A
C342       C1941   1.545       .  S
C342        N343   1.390       .  A
C342        N347   1.361       .  A
N343        C344   1.392       .  A
C344       C2165   1.513       .  S
C344        N345   1.357       .  A
N345        C346   1.349       .  A
C346       C1954   1.473       .  S
C346        N347   1.350       .  A
C348       C2181   1.480       .  S
C348        N349   1.360       .  A
C348        N353   1.361       .  A
N349        C350   1.357       .  A
C350       C1925   1.458       .  S
C350        N351   1.348       .  A
N351        C352   1.351       .  A
C352       C1909   1.467       .  S
C352        N353   1.356       .  A
C354       C2853   1.472       .  S
C354        N355   1.352       .  A
C354        N359   1.370       .  A
N355        C356   1.346       .  A
C356       C1890   1.467       .  S
C356        N357   1.350       .  A
N357        C358   1.362       .  A
C358       C3317   1.495       .  S
C358        N359   1.371       .  A
C360       C3333   1.480       .  S
C360        N361   1.371       .  A
C360        N365   1.354       .  A
N361        C362   1.370       .  A
C362       C2837   1.489       .  S
C362        N363   1.358       .  A
N363        C364   1.349       .  A
C364       C1874   1.460       .  S
C364        N365   1.346       .  A
C366       C2725   1.491       .  S
C366        N367   1.355       .  A
C366        N371   1.370       .  A
N367        C368   1.344       .  A
C368       C1858   1.453       .  S
C368        N369   1.342       .  A
N369        C370   1.355       .  A
C370       C2933   1.469       .  S
C370        N371   1.368       .  A
C372       C2709   1.496       .  S
C372        N373   1.359       .  A
C372        N377   1.376       .  A
N373        C374   1.354       .  A
C374       C1842   1.466       .  S
C374        N375   1.349       .  A
N375        C376   1.353       .  A
C376       C2949   1.498       .  S
C376        N377   1.375       .  A
N378        C383   1.348       .  A
N378        C382   1.353       .  A
N378        H410   1.036       .  S
N379        C386   1.349       .  A
N379        C387   1.349       .  A
N380        C385   1.349       .  A
N380        C384   1.353       .  A
N380        H411   1.036       .  S
N381        C388   1.352       .  A
N381        C389   1.352       .  A
C382        C390   1.383       .  A
C382        C398   1.411       .  A
C383        C399   1.417       .  A
C383        C391   1.390       .  A
C384        C392   1.382       .  A
C384        C401   1.409       .  A
C385        C400   1.417       .  A
C385        C393   1.391       .  A
C386        C398   1.398       .  A
C386        C394   1.377       .  A
C387        C401   1.394       .  A
C387        C395   1.377       .  A
C388        C396   1.387       .  A
C388        C399   1.418       .  A
C389        C397   1.384       .  A
C389        C400   1.414       .  A
C390        C391   1.375       .  A
C390        H402   1.082       .  S
C391        H403   1.083       .  S
C392        C393   1.373       .  A
C392        H404   1.083       .  S
C393        H405   1.081       .  S
C394        C395   1.370       .  A
C394        H406   1.075   1_556  S
C395        H407   1.079   1_556  S
C396        C397   1.368       .  A
C396        H408   1.082       .  S
C397        H409   1.082       .  S
C398       C1810   1.482       .  S
C399       C1826   1.484       .  S
C400       C1845   1.488       .  S
C401       C1877   1.479       .  S
N412        C417   1.353       .  A
N412        C416   1.354       .  A
N412        H444   1.040       .  S
N413        C420   1.352       .  A
N413        C421   1.351       .  A
N414        C419   1.356       .  A
N414        C418   1.349       .  A
N414        H445   1.037       .  S
N415        C422   1.344       .  A
N415        C423   1.345       .  A
C416        C424   1.391       .  A
C416        C432   1.418       .  A
C417        C433   1.408       .  A
C417        C425   1.385       .  A
C418        C426   1.392       .  A
C418        C435   1.417       .  A
C419        C434   1.409       .  A
C419        C427   1.382       .  A
C420        C432   1.416       .  A
C420        C428   1.385       .  A
C421        C435   1.414       .  A
C421        C429   1.385       .  A
C422        C430   1.387       .  A
C422        C433   1.400       .  A
C423        C431   1.384       .  A
C423        C434   1.398       .  A
C424        C425   1.365       .  A
C424        H436   1.081       .  S
C425        H437   1.082       .  S
C426        C427   1.366       .  A
C426        H438   1.082       .  S
C427        H439   1.082       .  S
C428        C429   1.377       .  A
C428        H440   1.082       .  S
C429        H441   1.082       .  S
C430        C431   1.368       .  A
C430        H442   1.083       .  S
C431        H443   1.082       .  S
C432       C1989   1.496       .  S
C433       C1778   1.470       .  S
C434       C1797   1.483       .  S
C435       C1922   1.483       .  S
C446       C2565   1.487       .  S
C446        N447   1.370       .  A
C446        N451   1.353       .  A
N447        C448   1.370       .  A
C448       C2741   1.498       .  S
C448        N449   1.365       .  A
N449        C450   1.357       .  A
C450       C1765   1.475       .  S
C450        N451   1.351       .  A
C452       C2757   1.494       .  S
C452        N453   1.357       .  A
C452        N457   1.368       .  A
N453        C454   1.351       .  A
C454       C1829   1.463       .  S
C454        N455   1.352       .  A
N455        C456   1.357       .  A
C456       C2549   1.475       .  S
C456        N457   1.367       .  A
C458       C3298   1.484       .  S
C458        N459   1.352       .  A
C458        N463   1.368       .  A
N459        C460   1.351       .  A
C460       C1746   1.466       .  S
C460        N461   1.352       .  A
N461        C462   1.359       .  A
C462       C2453   1.479       .  S
C462        N463   1.367       .  A
C464       C3285   1.485       .  S
C464        N465   1.358       .  A
C464        N469   1.370       .  A
N465        C466   1.346       .  A
C466       C1813   1.468       .  S
C466        N467   1.345       .  A
N467        C468   1.356       .  A
C468       C2466   1.494       .  S
C468        N469   1.372       .  A
C470       C3029   1.474       .  S
C470        N471   1.356       .  A
C470        N475   1.363       .  A
N471        C472   1.353       .  A
C472       C1730   1.473       .  S
C472        N473   1.356       .  A
N473        C474   1.358       .  A
C474       C3365   1.481       .  S
C474        N475   1.365       .  A
C476       C3045   1.490       .  S
C476        N477   1.355       .  A
C476        N481   1.366       .  A
N477        C478   1.350       .  A
C478       C1714   1.468       .  S
C478        N479   1.357       .  A
N479        C480   1.362       .  A
C480       C3349   1.483       .  S
C480        N481   1.366       .  A
C482       C2149   1.507       .  S
C482        N483   1.360       .  A
C482        N487   1.374       .  A
N483        C484   1.356       .  A
C484       C1698   1.466       .  S
C484        N485   1.349       .  A
N485        C486   1.352       .  A
C486       C3157   1.482       .  S
C486        N487   1.370       .  A
C488       C2133   1.475       .  S
C488        N489   1.366       .  A
C488        N493   1.356       .  A
N489        C490   1.367       .  A
C490       C3173   1.476       .  S
C490        N491   1.353       .  A
N491        C492   1.350       .  A
C492       C1794   1.460       .  S
C492        N493   1.352       .  A
N494        C499   1.356       .  A
N494        C498   1.353       .  A
N494        H526   1.038       .  S
N495        C502   1.348       .  A
N495        C503   1.350       .  A
N496        C501   1.350       .  A
N496        C500   1.352       .  A
N496        H527   1.035       .  S
N497        C504   1.347       .  A
N497        C505   1.346       .  A
C498        C506   1.390       .  A
C498        C514   1.419       .  A
C499        C515   1.414       .  A
C499        C507   1.386       .  A
C500        C508   1.387       .  A
C500        C517   1.413       .  A
C501        C516   1.412       .  A
C501        C509   1.386       .  A
C502        C514   1.408       .  A
C502        C510   1.384       .  A
C503        C517   1.407       .  A
C503        C511   1.385       .  A
C504        C512   1.385       .  A
C504        C515   1.408       .  A
C505        C513   1.385       .  A
C505        C516   1.404       .  A
C506        C507   1.363       .  A
C506        H518   1.080       .  S
C507        H519   1.082       .  S
C508        C509   1.371       .  A
C508        H520   1.082       .  S
C509        H521   1.083       .  S
C510        C511   1.374       .  A
C510        H522   1.082       .  S
C511        H523   1.081       .  S
C512        C513   1.375       .  A
C512        H524   1.082       .  S
C513        H525   1.082       .  S
C514       C1701   1.486       .  S
C515       C1682   1.490       .  S
C516       C1749   1.488       .  S
C517       C1717   1.487       .  S
N528        C533   1.353       .  A
N528        C532   1.356       .  A
N528        H560   1.038       .  S
N529        C536   1.352       .  A
N529        C537   1.351       .  A
N530        C535   1.355       .  A
N530        C534   1.348       .  A
N530        H561   1.037       .  S
N531        C538   1.342       .  A
N531        C539   1.344       .  A
C532        C540   1.385       .  A
C532        C548   1.415       .  A
C533        C549   1.420       .  A
C533        C541   1.390       .  A
C534        C542   1.396       .  A
C534        C551   1.422       .  A
C535        C550   1.404       .  A
C535        C543   1.379       .  A
C536        C548   1.411       .  A
C536        C544   1.383       .  A
C537        C551   1.417       .  A
C537        C545   1.388       .  A
C538        C546   1.389       .  A
C538        C549   1.403       .  A
C539        C547   1.382       .  A
C539        C550   1.395       .  A
C540        C541   1.367       .  A
C540        H552   1.082       .  S
C541        H553   1.082       .  S
C542        C543   1.366       .  A
C542        H554   1.080       .  S
C543        H555   1.083       .  S
C544        C545   1.377       .  A
C544        H556   1.082       .  S
C545        H557   1.082       .  S
C546        C547   1.373       .  A
C546        H558   1.082       .  S
C547        H559   1.082       .  S
C548       C1669   1.498       .  S
C549       C1861   1.477       .  S
C550       C1650   1.490       .  S
C551       C2018   1.482       .  S
C562       C2581   1.476       .  S
C562        N563   1.358       .  A
C562        N567   1.366       .  A
N563        C564   1.350       .  A
C564       C1634   1.467       .  S
C564        N565   1.350       .  A
N565        C566   1.353       .  A
C566       C2213   1.476       .  S
C566        N567   1.369       .  A
C568       C2197   1.472       .  S
C568        N569   1.361       .  A
C568        N573   1.366       .  A
N569        C570   1.356       .  A
C570       C1685   1.465       .  S
C570        N571   1.348       .  A
N571        C572   1.348       .  A
C572       C2597   1.468       .  S
C572        N573   1.362       .  A
C574       C2773   1.521       .  S
C574        N575   1.360       .  A
C574        N579   1.390       .  A
N575        C576   1.354       .  A
C576       C1666   1.479       .  S
C576        N577   1.353       .  A
N577        C578   1.360       .  A
C578       C1618   1.531       .  S
C578        N579   1.389       .  A
C580       C1586   1.452       .  S
C580        N581   1.350       .  A
C580        N585   1.349       .  A
N581        C582   1.356       .  A
C582       C2789   1.452       .  S
C582        N583   1.359       .  A
N583        C584   1.357       .  A
C584       C1605   1.462       .  S
C584        N585   1.350       .  A
C586       C3141   1.503       .  S
C586        N587   1.377       .  A
C586        N591   1.354       .  A
N587        C588   1.378       .  A
C588       C2354   1.501       .  S
C588        N589   1.360       .  A
N589        C590   1.355       .  A
C590       C1570   1.467       .  S
C590        N591   1.350       .  A
C592       C2373   1.463       .  S
C592        N593   1.366       .  A
C592        N597   1.348       .  A
N593        C594   1.367       .  A
C594       C3125   1.470       .  S
C594        N595   1.355       .  A
N595        C596   1.346       .  A
C596       C1781   1.450       .  S
C596        N597   1.342       .  A
N598        C603   1.352       .  A
N598        C602   1.353       .  A
N598        H630   1.038       .  S
N599        C606   1.348       .  A
N599        C607   1.348       .  A
N600        C605   1.355       .  A
N600        C604   1.354       .  A
N600        H631   1.041       .  S
N601        C608   1.348       .  A
N601        C609   1.348       .  A
C602        C610   1.386       .  A
C602        C618   1.412       .  A
C603        C619   1.413       .  A
C603        C611   1.387       .  A
C604        C612   1.389       .  A
C604        C621   1.416       .  A
C605        C620   1.413       .  A
C605        C613   1.387       .  A
C606        C618   1.403       .  A
C606        C614   1.385       .  A
C607        C621   1.407       .  A
C607        C615   1.385       .  A
C608        C616   1.386       .  A
C608        C619   1.404       .  A
C609        C617   1.384       .  A
C609        C620   1.406       .  A
C610        C611   1.369       .  A
C610        H622   1.082       .  S
C611        H623   1.082       .  S
C612        C613   1.366       .  A
C612        H624   1.081       .  S
C613        H625   1.082       .  S
C614        C615   1.374       .  A
C614        H626   1.082       .  S
C615        H627   1.082       .  S
C616        C617   1.374       .  A
C616        H628   1.081       .  S
C617        H629   1.082       .  S
C618       C1573   1.486       .  S
C619       C1554   1.485       .  S
C620       C1893   1.488       .  S
C621       C1733   1.487       .  S
N632        C637   1.355       .  A
N632        C636   1.357       .  A
N632        H664   1.040       .  S
N633        C640   1.349       .  A
N633        C641   1.348       .  A
N634        C639   1.356       .  A
N634        C638   1.353       .  A
N634        H665   1.041       .  S
N635        C642   1.347       .  A
N635        C643   1.349       .  A
C636        C644   1.383       .  A
C636        C652   1.414       .  A
C637        C653   1.423       .  A
C637        C645   1.392       .  A
C638        C646   1.392       .  A
C638        C655   1.419       .  A
C639        C654   1.410       .  A
C639        C647   1.383       .  A
C640        C652   1.405       .  A
C640        C648   1.384       .  A
C641        C655   1.408       .  A
C641        C649   1.387       .  A
C642        C650   1.387       .  A
C642        C653   1.408       .  A
C643        C651   1.383       .  A
C643        C654   1.401       .  A
C644        C645   1.365       .  A
C644        H656   1.083       .  S
C645        H657   1.079       .  S
C646        C647   1.363       .  A
C646        H658   1.080       .  S
C647        H659   1.082       .  S
C648        C649   1.375       .  A
C648        H660   1.082       .  S
C649        H661   1.082       .  S
C650        C651   1.372       .  A
C650        H662   1.083       .  S
C651        H663   1.082       .  S
C652       C1957   1.497       .  S
C653       C1637   1.489       .  S
C654       C1762   1.490       .  S
C655       C1602   1.484       .  S
C666       C2965   1.500       .  S
C666        N667   1.376       .  A
C666        N671   1.361       .  A
N667        C668   1.378       .  A
C668       C2405   1.495       .  S
C668        N669   1.356       .  A
N669        C670   1.341       .  A
C670       C1557   1.461       .  S
C670        N671   1.343       .  A
C672       C2389   1.496       .  S
C672        N673   1.373       .  A
C672        N677   1.359       .  A
N673        C674   1.374       .  A
C674       C2981   1.487       .  S
C674        N675   1.354       .  A
N675        C676   1.348       .  A
C676       C1653   1.465       .  S
C676        N677   1.352       .  A
C678       C2997   1.478       .  S
C678        N679   1.356       .  A
C678        N683   1.364       .  A
N679        C680   1.351       .  A
C680       C1538   1.475       .  S
C680        N681   1.354   1_554  A
N681        C682   1.359       .  A
C682       C3269   1.481       .  S
C682        N683   1.367   1_556  A
C684       C3250   1.512       .  S
C684        N685   1.374       .  A
C684        N689   1.366       .  A
N685        C686   1.371   1_556  A
C686       C3013   1.479       .  S
C686        N687   1.350       .  A
N687        C688   1.343   1_554  A
C688       C1522   1.469   1_556  S
C688        N689   1.351       .  A
C690       C2437   1.474       .  S
C690        N691   1.373   1_455  A
C690        N695   1.347       .  A
N691        C692   1.374       .  A
C692       C3218   1.504       .  S
C692        N693   1.364       .  A
N693        C694   1.352       .  A
C694       C1506   1.466       .  S
C694        N695   1.341   1_655  A
C696       C2421   1.474       .  S
C696        N697   1.366       .  A
C696        N701   1.353       .  A
N697        C698   1.370   1_455  A
C698       C3237   1.488       .  S
C698        N699   1.356       .  A
N699        C700   1.351   1_655  A
C700       C1490   1.465       .  S
C700        N701   1.348       .  A
C702       C3205   1.502       .  S
C702        N703   1.364       .  A
C702        N707   1.367   1_565  A
N703        C704   1.359   1_565  A
C704       C1477   1.476       .  S
C704        N705   1.352       .  A
N705        C706   1.354       .  A
C706       C2802   1.476       .  S
C706        N707   1.363       .  A
C708       C2821   1.464       .  S
C708        N709   1.350       .  A
C708        N713   1.362   1_545  A
N709        C710   1.348       .  A
C710       C1461   1.472       .  S
C710        N711   1.352   1_545  A
N711        C712   1.359       .  A
C712       C3186   1.470       .  S
C712        N713   1.365       .  A
C714       C2613   1.526       .  S
C714        N715   1.359       .  A
C714        N719   1.388   1_556  A
N715        C716   1.351   1_556  A
C716       C1442   1.487       .  S
C716        N717   1.356       .  A
N717        C718   1.361       .  A
C718       C1426   1.521       .  S
C718        N719   1.389       .  A
C720       C1394   1.450       .  S
C720        N721   1.356       .  A
C720        N725   1.350       .  A
N721        C722   1.358   1_554  A
C722       C2629   1.465       .  S
C722        N723   1.356       .  A
N723        C724   1.352   1_556  A
C724       C1413   1.451       .  S
C724        N725   1.346       .  A
C726       C2277   1.490       .  S
C726        N727   1.373   1_545  A
C726        N731   1.356       .  A
N727        C728   1.371       .  A
C728       C3093   1.487       .  S
C728        N729   1.357       .  A
N729        C730   1.350       .  A
C730       C1381   1.466       .  S
C730        N731   1.352   1_565  A
C732       C3109   1.483       .  S
C732        N733   1.370   1_565  A
C732        N737   1.355       .  A
N733        C734   1.370       .  A
C734       C2261   1.496       .  S
C734        N735   1.361       .  A
N735        C736   1.355   1_545  A
C736       C1362   1.470       .  S
C736        N737   1.350       .  A
N738        C743   1.357       .  A
N738        C742   1.350       .  A
N738        H770   1.043       .  S
N739        C746   1.346       .  A
N739        C747   1.349       .  A
N740        C745   1.350       .  A
N740        C744   1.354       .  A
N740        H771   1.040   1_565  S
N741        C748   1.347       .  A
N741        C749   1.346       .  A
C742        C750   1.391       .  A
C742        C758   1.418       .  A
C743        C759   1.412   1_556  A
C743        C751   1.384       .  A
C744        C752   1.386       .  A
C744        C761   1.410       .  A
C745        C760   1.412   1_565  A
C745        C753   1.388       .  A
C746        C758   1.409   1_565  A
C746        C754   1.388       .  A
C747        C761   1.401   1_556  A
C747        C755   1.382       .  A
C748        C756   1.381       .  A
C748        C759   1.405       .  A
C749        C757   1.387       .  A
C749        C760   1.402       .  A
C750        C751   1.371       .  A
C750        H762   1.082       .  S
C751        H763   1.082       .  S
C752        C753   1.369       .  A
C752        H764   1.082       .  S
C753        H765   1.082       .  S
C754        C755   1.376       .  A
C754        H766   1.082       .  S
C755        H767   1.082       .  S
C756        C757   1.377       .  A
C756        H768   1.082       .  S
C757        H769   1.081       .  S
C758       C1314   1.481       .  S
C759       C1445   1.498       .  S
C760       C1349   1.480       .  S
C761       C1330   1.492       .  S
N772        C777   1.355       .  A
N772        C776   1.355       .  A
N772        H804   1.040       .  S
N773        C780   1.347       .  A
N773        C781   1.348       .  A
N774        C779   1.351       .  A
N774        C778   1.352       .  A
N774        H805   1.035       .  S
N775        C782   1.348       .  A
N775        C783   1.349   1_556  A
C776        C784   1.387       .  A
C776        C792   1.415   1_556  A
C777        C793   1.417   1_565  A
C777        C785   1.388       .  A
C778        C786   1.386       .  A
C778        C795   1.413   1_545  A
C779        C794   1.412       .  A
C779        C787   1.387       .  A
C780        C792   1.406       .  A
C780        C788   1.385       .  A
C781        C795   1.404       .  A
C781        C789   1.385       .  A
C782        C790   1.384       .  A
C782        C793   1.408       .  A
C783        C791   1.386   1_554  A
C783        C794   1.406       .  A
C784        C785   1.363       .  A
C784        H796   1.082       .  S
C785        H797   1.082       .  S
C786        C787   1.369       .  A
C786        H798   1.082       .  S
C787        H799   1.082       .  S
C788        C789   1.374       .  A
C788        H800   1.082       .  S
C789        H801   1.080       .  S
C790        C791   1.375       .  A
C790        H802   1.082       .  S
C791        H803   1.082       .  S
C792       C1525   1.487       .  S
C793       C1474   1.489       .  S
C794       C1298   1.485       .  S
C795       C1378   1.488       .  S
C806       C2290   1.494       .  S
C806        N807   1.361       .  A
C806        N811   1.375       .  A
N807        C808   1.354       .  A
C808       C1301   1.466       .  S
C808        N809   1.347       .  A
N809        C810   1.353       .  A
C810       C2885   1.503   1_554  S
C810        N811   1.375       .  A
C812       C2869   1.479       .  S
C812        N813   1.372   1_556  A
C812        N817   1.352       .  A
N813        C814   1.375       .  A
C814       C2309   1.507       .  S
C814        N815   1.356       .  A
N815        C816   1.351       .  A
C816       C1285   1.459   1_554  S
C816        N817   1.346   1_554  A
C818       C2053   1.459       .  S
C818        N819   1.354       .  A
C818        N823   1.358   1_565  A
N819        C820   1.350   1_565  A
C820       C1346   1.454       .  S
C820        N821   1.347       .  A
N821        C822   1.353       .  A
C822       C1266   1.455       .  S
C822        N823   1.359       .  A
C824       C1237   1.524       .  S
C824        N825   1.361       .  A
C824        N829   1.390   1_545  A
N825        C826   1.356   1_545  A
C826       C1250   1.482       .  S
C826        N827   1.351       .  A
N827        C828   1.357       .  A
C828       C2037   1.524       .  S
C828        N829   1.389       .  A
C830       C3077   1.487       .  S
C830        N831   1.358       .  A
C830        N835   1.376   1_655  A
N831        C832   1.350   1_655  A
C832       C1221   1.470       .  S
C832        N833   1.349       .  A
N833        C834   1.361       .  A
C834       C2066   1.503       .  S
C834        N835   1.373       .  A
C836       C3061   1.467       .  S
C836        N837   1.366       .  A
C836        N841   1.354       .  A
N837        C838   1.368   1_655  A
C838       C2085   1.478       .  S
C838        N839   1.353       .  A
N839        C840   1.349   1_455  A
C840       C1202   1.454       .  S
C840        N841   1.346       .  A
N842        C847   1.351       .  A
N842        C846   1.352       .  A
N842        H874   1.036       .  S
N843        C850   1.352       .  A
N843        C851   1.350   1_655  A
N844        C849   1.357       .  A
N844        C848   1.346   1_556  A
N844        H875   1.038   1_456  S
N845        C852   1.346       .  A
N845        C853   1.344       .  A
C846        C854   1.390       .  A
C846        C862   1.419       .  A
C847        C863   1.412       .  A
C847        C855   1.385       .  A
C848        C856   1.394   1_554  A
C848        C865   1.418       .  A
C849        C864   1.408   1_455  A
C849        C857   1.380       .  A
C850        C862   1.415       .  A
C850        C858   1.384   1_655  A
C851        C865   1.411       .  A
C851        C859   1.387       .  A
C852        C860   1.382   1_556  A
C852        C863   1.393   1_556  A
C853        C861   1.384       .  A
C853        C864   1.398       .  A
C854        C855   1.374       .  A
C854        H866   1.082       .  S
C855        H867   1.083       .  S
C856        C857   1.373       .  A
C856        H868   1.080       .  S
C857        H869   1.082       .  S
C858        C859   1.375       .  A
C858        H870   1.082       .  S
C859        H871   1.082       .  S
C860        C861   1.371   1_554  A
C860        H872   1.082       .  S
C861        H873   1.075       .  S
C862       C1186   1.492       .  S
C863       C1282   1.478       .  S
C864       C1170   1.490       .  S
C865       C1410   1.477       .  S
N876        C881   1.353       .  A
N876        C880   1.352       .  A
N876        H908   1.042       .  S
N877        C884   1.345       .  A
N877        C885   1.345       .  A
N878        C883   1.352       .  A
N878        C882   1.352       .  A
N878        H909   1.039       .  S
N879        C886   1.347       .  A
N879        C887   1.347       .  A
C880        C888   1.389       .  A
C880        C896   1.413   1_655  A
C881        C897   1.413   1_556  A
C881        C889   1.388       .  A
C882        C890   1.386       .  A
C882        C899   1.411   1_554  A
C883        C898   1.413       .  A
C883        C891   1.387       .  A
C884        C896   1.405       .  A
C884        C892   1.385       .  A
C885        C899   1.400       .  A
C885        C893   1.385       .  A
C886        C894   1.383       .  A
C886        C897   1.407       .  A
C887        C895   1.386       .  A
C887        C898   1.404   1_655  A
C888        C889   1.364       .  A
C888        H900   1.081       .  S
C889        H901   1.082       .  S
C890        C891   1.370       .  A
C890        H902   1.083       .  S
C891        H903   1.082       .  S
C892        C893   1.374       .  A
C892        H904   1.083       .  S
C893        H905   1.082       .  S
C894        C895   1.377       .  A
C894        H906   1.082       .  S
C895        H907   1.082       .  S
C896       C1509   1.481       .  S
C897       C1541   1.488       .  S
C898       C1218   1.487       .  S
C899       C1154   1.489       .  S
C910       C2098   1.510       .  S
C910        N911   1.365       .  A
C910        N915   1.376       .  A
N911        C912   1.355       .  A
C912       C1333   1.475       .  S
C912        N913   1.349   1_554  A
N913        C914   1.356       .  A
C914       C2501   1.503       .  S
C914        N915   1.377   1_556  A
C916       C2485   1.469       .  S
C916        N917   1.358       .  A
C916        N921   1.365       .  A
N917        C918   1.348       .  A
C918       C1157   1.462       .  S
C918        N919   1.349   1_556  A
N919        C920   1.354       .  A
C920       C2114   1.476       .  S
C920        N921   1.366   1_554  A
C922       C1138   1.522       .  S
C922        N923   1.359       .  A
C922        N927   1.384   1_455  A
N923        C924   1.350   1_455  A
C924       C1189   1.479       .  S
C924        N925   1.352       .  A
N925        C926   1.360       .  A
C926       C2229   1.509       .  S
C926        N927   1.386       .  A
C928       C1106   1.456       .  S
C928        N929   1.348       .  A
C928        N933   1.352   1_455  A
N929        C930   1.346       .  A
C930       C1122   1.452       .  S
C930        N931   1.353   1_455  A
N931        C932   1.360       .  A
C932       C2245   1.467       .  S
C932        N933   1.357       .  A
C934       C2917   1.486       .  S
C934        N935   1.371       .  A
C934        N939   1.352       .  A
N935        C936   1.372   1_655  A
C936       C2674   1.493       .  S
C936        N937   1.363       .  A
N937        C938   1.356   1_455  A
C938       C1173   1.470       .  S
C938        N939   1.348       .  A
C940       C2901   1.502       .  S
C940        N941   1.361       .  A
C940        N945   1.372       .  A
N941        C942   1.346       .  A
C942       C1093   1.465       .  S
C942        N943   1.346       .  A
N943        C944   1.357       .  A
C944       C2693   1.487   1_655  S
C944        N945   1.374       .  A
N946        C951   1.354       .  A
N946        C950   1.353       .  A
N946        H978   1.037       .  S
N947        C954   1.352       .  A
N947        C955   1.353       .  A
N948        C953   1.355       .  A
N948        C952   1.346       .  A
N948        H979   1.037   1_645  S
N949        C956   1.348       .  A
N949        C957   1.345       .  A
C950        C958   1.389       .  A
C950        C966   1.419       .  A
C951        C967   1.416       .  A
C951        C959   1.386       .  A
C952        C960   1.395       .  A
C952        C969   1.421   1_655  A
C953        C968   1.409   1_545  A
C953        C961   1.381       .  A
C954        C966   1.417   1_545  A
C954        C962   1.385       .  A
C955        C969   1.418       .  A
C955        C963   1.387       .  A
C956        C964   1.380       .  A
C956        C967   1.391   1_655  A
C957        C965   1.383       .  A
C957        C968   1.401       .  A
C958        C959   1.374       .  A
C958        H970   1.082       .  S
C959        H971   1.083       .  S
C960        C961   1.373       .  A
C960        H972   1.080       .  S
C961        H973   1.082       .  S
C962        C963   1.376       .  A
C962        H974   1.082       .  S
C963        H975   1.082       .  S
C964        C965   1.369       .  A
C964        H976   1.082   1_655  S
C965        H977   1.072       .  S
C966       C1253   1.496       .  S
C967       C1205   1.474   1_455  S
C968       C1365   1.489       .  S
C969       C1125   1.484       .  S
N980        C985   1.342       .  A
N980        C984   1.345       .  A
N980       H1012   1.042       .  S
N981        C988   1.348       .  A
N981        C989   1.348       .  A
N982        C987   1.344   1_565  A
N982        C986   1.345       .  A
N982       H1013   1.040   1_565  S
N983        C990   1.351       .  A
N983        C991   1.351       .  A
C984        C992   1.386       .  A
C984       C1000   1.407       .  A
C985       C1001   1.401       .  A
C985        C993   1.385       .  A
C986        C994   1.387       .  A
C986       C1003   1.410       .  A
C987       C1002   1.404       .  A
C987        C995   1.385   1_545  A
C988       C1000   1.410   1_565  A
C988        C996   1.386       .  A
C989       C1003   1.415   1_655  A
C989        C997   1.389       .  A
C990        C998   1.386       .  A
C990       C1001   1.410   1_455  A
C991        C999   1.384       .  A
C991       C1002   1.409       .  A
C992        C993   1.385       .  A
C992       H1004   1.082       .  S
C993       H1005   1.081       .  S
C994        C995   1.380       .  A
C994       H1006   1.082       .  S
C995       H1007   1.082       .  S
C996        C997   1.368       .  A
C996       H1008   1.082       .  S
C997       H1009   1.082       .  S
C998        C999   1.371       .  A
C998       H1010   1.082       .  S
C999       H1011   1.082       .  S
C1000      C1458   1.484       .  S
C1001      C1090   1.487       .  S
C1002      C1077   1.493       .  S
C1003      C1493   1.478       .  S
C1014      C2658   1.494       .  S
C1014      N1015   1.376       .  A
C1014      N1019   1.358       .  A
N1015      C1016   1.372   1_545  A
C1016      C2514   1.495       .  S
C1016      N1017   1.355       .  A
N1017      C1018   1.346       .  A
C1018      C1317   1.472       .  S
C1018      N1019   1.350   1_565  A
C1020      C2533   1.480       .  S
C1020      N1021   1.371   1_565  A
C1020      N1025   1.356       .  A
N1021      C1022   1.370       .  A
C1022      C2645   1.484       .  S
C1022      N1023   1.359       .  A
N1023      C1024   1.350       .  A
C1024      C1074   1.469       .  S
C1024      N1025   1.348   1_545  A
O1026      C1053   1.263       .  A
O1026     Mn1052   2.065       .  S
C1027      O1060   1.268       .  A
C1027      O1057   1.272       .  A
C1027      C1269   1.475       .  S
O1028     Mn1035   2.161       .  S
O1028     Mn1046   2.109       .  S
O1028     Mn1050   2.162       .  S
O1028     Mn1052   2.120       .  S
O1029      C1039   1.271       .  A
O1029     Mn1063   2.078       .  S
O1030      C1053   1.273       .  A
O1030     Mn1046   2.085       .  S
O1031      C1058   1.269       .  A
O1031     Mn1050   2.179       .  S
O1032     Mn1063   1.999       .  S
O1032     Mn1052   1.962       .  S
O1032      C1048   1.231       .  S
C1033      O1036   1.267       .  A
C1033      C1970   1.535       .  S
C1033      O1059   1.225       .  S
O1034     Mn1054   2.104       .  S
O1034     Mn1035   2.167       .  S
O1034     Mn1068   2.111       .  S
O1034     Mn1050   2.157       .  S
Mn1035     O1064   2.166       .  S
Mn1035     O1040   2.158       .  S
Mn1035     O1067   2.167       .  S
Mn1035     O1041   2.155       .  S
O1036     Mn1050   2.169       .  S
O1037      C1039   1.260       .  A
O1037     Mn1044   2.054       .  S
C1038      O1064   1.267       .  A
C1038      C1429   1.537       .  S
C1038      O1051   1.229       .  S
C1039      C2005   1.466       .  S
O1040      C1065   1.264       .  A
O1041     Mn1044   2.109       .  S
O1041     Mn1063   2.113       .  S
O1041     Mn1050   2.170       .  S
O1042     Mn1046   1.956       .  S
O1042     Mn1068   1.971       .  S
O1042      C1065   1.225       .  S
C1043      O1069   1.272       .  A
C1043      O1045   1.269       .  A
C1043      C1906   1.482       .  S
Mn1044     O1057   2.080       .  S
Mn1044     O1059   1.949       .  S
Mn1044     O1051   1.975       .  S
O1045     Mn1068   2.073       .  S
Mn1046     O1062   2.071       .  S
Mn1046     O1056   1.989       .  S
O1047      C1049   1.268       .  A
O1047     Mn1052   2.075       .  S
C1048      O1066   1.267       .  A
C1048      C1621   1.539       .  S
C1049      O1062   1.269       .  A
C1049      C1109   1.479       .  S
Mn1050     O1066   2.159       .  S
O1051     Mn1054   1.959       .  S
Mn1052     O1070   1.972       .  S
C1053      C1589   1.477       .  S
Mn1054     O1061   2.061       .  S
Mn1054     O1069   2.086       .  S
Mn1054     O1059   1.984       .  S
C1055      O1061   1.263       .  A
C1055      O1071   1.271       .  A
C1055      C1397   1.467       .  S
O1056     Mn1068   1.959       .  S
O1056      C1058   1.225       .  S
C1058      C1938   1.532       .  S
O1060     Mn1063   2.078       .  S
Mn1063     O1070   1.947       .  S
C1065      C1141   1.525       .  S
O1067      C1072   1.267       .  A
Mn1068     O1071   2.081       .  S
O1070      C1072   1.228       .  S
C1072      C1234   1.538       .  S
C1073      C1074   1.393       .  A
C1073      C1078   1.399       .  A
C1073      H1080   1.085       .  S
C1074      C1075   1.413       .  A
C1075      C1076   1.407       .  A
C1075      C1082   1.506       .  S
C1076      C1077   1.403       .  A
C1076      H1081   1.084       .  S
C1077      C1078   1.426       .  A
C1078      C1079   1.509       .  S
C1079      H1083   1.111       .  S
C1079      H1084   1.106       .  S
C1079      H1085   1.105       .  S
C1082      H1086   1.110   1_545  S
C1082      H1087   1.111       .  S
C1082      H1088   1.111       .  S
C1089      C1090   1.408       .  A
C1089      C1094   1.395       .  A
C1089      H1096   1.081       .  S
C1090      C1091   1.408       .  A
C1091      C1092   1.408       .  A
C1091      C1098   1.503       .  S
C1092      C1093   1.406       .  A
C1092      H1097   1.084       .  S
C1093      C1094   1.404       .  A
C1094      C1095   1.507       .  S
C1095      H1099   1.111       .  S
C1095      H1100   1.110       .  S
C1095      H1101   1.110       .  S
C1098      H1102   1.109       .  S
C1098      H1103   1.109       .  S
C1098      H1104   1.111       .  S
C1105      C1106   1.402       .  A
C1105      C1110   1.396       .  A
C1105      H1112   1.085       .  S
C1106      C1107   1.402       .  A
C1107      C1108   1.395       .  A
C1107      C1114   1.507       .  S
C1108      C1109   1.413       .  A
C1108      H1113   1.084       .  S
C1109      C1110   1.417       .  A
C1110      C1111   1.510       .  S
C1111      H1115   1.111       .  S
C1111      H1116   1.110       .  S
C1111      H1117   1.110       .  S
C1114      H1118   1.110       .  S
C1114      H1119   1.110       .  S
C1114      H1120   1.111       .  S
C1121      C1122   1.391       .  A
C1121      C1126   1.383       .  A
C1121      H1128   1.086       .  S
C1122      C1123   1.406       .  A
C1123      C1124   1.407       .  A
C1123      C1130   1.503       .  S
C1124      C1125   1.408       .  A
C1124      H1129   1.080       .  S
C1125      C1126   1.417       .  A
C1126      C1127   1.504       .  S
C1127      H1131   1.111       .  S
C1127      H1132   1.107       .  S
C1127      H1133   1.104       .  S
C1130      H1134   1.110   1_455  S
C1130      H1135   1.110       .  S
C1130      H1136   1.110       .  S
C1137      C1138   1.409       .  A
C1137      C1142   1.409       .  A
C1137      H1144   1.084       .  S
C1138      C1139   1.419       .  A
C1139      C1140   1.431       .  A
C1139      C1146   1.502       .  S
C1140      C1141   1.417       .  A
C1140      H1145   1.083       .  S
C1141      C1142   1.423       .  A
C1142      C1143   1.510       .  S
C1143      H1147   1.111       .  S
C1143      H1148   1.109       .  S
C1143      H1149   1.106       .  S
C1146      H1150   1.110       .  S
C1146      H1151   1.110       .  S
C1146      H1152   1.111       .  S
C1153      C1154   1.402       .  A
C1153      C1158   1.406       .  A
C1153      H1160   1.084       .  S
C1154      C1155   1.424       .  A
C1155      C1156   1.396       .  A
C1155      C1162   1.512       .  S
C1156      C1157   1.392       .  A
C1156      H1161   1.085       .  S
C1157      C1158   1.412       .  A
C1158      C1159   1.506       .  S
C1159      H1163   1.111       .  S
C1159      H1164   1.110       .  S
C1159      H1165   1.110       .  S
C1162      H1166   1.106   1_556  S
C1162      H1167   1.106       .  S
C1162      H1168   1.111       .  S
C1169      C1170   1.400       .  A
C1169      C1174   1.405       .  A
C1169      H1176   1.084       .  S
C1170      C1171   1.422       .  A
C1171      C1172   1.403       .  A
C1171      C1178   1.509   1_655  S
C1172      C1173   1.397       .  A
C1172      H1177   1.084   1_655  S
C1173      C1174   1.413       .  A
C1174      C1175   1.507       .  S
C1175      H1179   1.111       .  S
C1175      H1180   1.110       .  S
C1175      H1181   1.110       .  S
C1178      H1182   1.109   1_455  S
C1178      H1183   1.105       .  S
C1178      H1184   1.111       .  S
C1185      C1186   1.404       .  A
C1185      C1190   1.401       .  A
C1185      H1192   1.085       .  S
C1186      C1187   1.410       .  A
C1187      C1188   1.410       .  A
C1187      C1194   1.504       .  S
C1188      C1189   1.407       .  A
C1188      H1193   1.084       .  S
C1189      C1190   1.412       .  A
C1190      C1191   1.508   1_655  S
C1191      H1195   1.111       .  S
C1191      H1196   1.111   1_455  S
C1191      H1197   1.109       .  S
C1194      H1198   1.110       .  S
C1194      H1199   1.110       .  S
C1194      H1200   1.111       .  S
C1201      C1202   1.402       .  A
C1201      C1206   1.399       .  A
C1201      H1208   1.085       .  S
C1202      C1203   1.405       .  A
C1203      C1204   1.396       .  A
C1203      C1210   1.506       .  S
C1204      C1205   1.405       .  A
C1204      H1209   1.084       .  S
C1205      C1206   1.407       .  A
C1206      C1207   1.505       .  S
C1207      H1211   1.111       .  S
C1207      H1212   1.110       .  S
C1207      H1213   1.110   1_655  S
C1210      H1214   1.110       .  S
C1210      H1215   1.110   1_655  S
C1210      H1216   1.111       .  S
C1217      C1218   1.406       .  A
C1217      C1222   1.396       .  A
C1217      H1224   1.083       .  S
C1218      C1219   1.407       .  A
C1219      C1220   1.410       .  A
C1219      C1226   1.505       .  S
C1220      C1221   1.408       .  A
C1220      H1225   1.084       .  S
C1221      C1222   1.405       .  A
C1222      C1223   1.507       .  S
C1223      H1227   1.111   1_455  S
C1223      H1228   1.110       .  S
C1223      H1229   1.110   1_455  S
C1226      H1230   1.110       .  S
C1226      H1231   1.110       .  S
C1226      H1232   1.111       .  S
C1233      C1234   1.413       .  A
C1233      C1238   1.417       .  A
C1233      H1240   1.083       .  S
C1234      C1235   1.427       .  A
C1235      C1236   1.434       .  A
C1235      C1242   1.504       .  S
C1236      C1237   1.414       .  A
C1236      H1241   1.083       .  S
C1237      C1238   1.417       .  A
C1238      C1239   1.507       .  S
C1239      H1243   1.111       .  S
C1239      H1244   1.111       .  S
C1239      H1245   1.109       .  S
C1242      H1246   1.110       .  S
C1242      H1247   1.110       .  S
C1242      H1248   1.111       .  S
C1249      C1250   1.409       .  A
C1249      C1254   1.410       .  A
C1249      H1256   1.084       .  S
C1250      C1251   1.411   1_565  A
C1251      C1252   1.401       .  A
C1251      C1258   1.508       .  S
C1252      C1253   1.404   1_545  A
C1252      H1257   1.079       .  S
C1253      C1254   1.410       .  A
C1254      C1255   1.505       .  S
C1255      H1259   1.111       .  S
C1255      H1260   1.109       .  S
C1255      H1261   1.110       .  S
C1258      H1262   1.110       .  S
C1258      H1263   1.110       .  S
C1258      H1264   1.111       .  S
C1265      C1266   1.395       .  A
C1265      C1270   1.394       .  A
C1265      H1272   1.085       .  S
C1266      C1267   1.408       .  A
C1267      C1268   1.400       .  A
C1267      C1274   1.506       .  S
C1268      C1269   1.406       .  A
C1268      H1273   1.083       .  S
C1269      C1270   1.422       .  A
C1270      C1271   1.513       .  S
C1271      H1275   1.111       .  S
C1271      H1276   1.106       .  S
C1271      H1277   1.111       .  S
C1274      H1278   1.110       .  S
C1274      H1279   1.110       .  S
C1274      H1280   1.111       .  S
C1281      C1282   1.408       .  A
C1281      C1286   1.398       .  A
C1281      H1288   1.084       .  S
C1282      C1283   1.406   1_554  A
C1283      C1284   1.398       .  A
C1283      C1290   1.506       .  S
C1284      C1285   1.405       .  A
C1284      H1289   1.085       .  S
C1285      C1286   1.405   1_556  A
C1286      C1287   1.506       .  S
C1287      H1291   1.111       .  S
C1287      H1292   1.110       .  S
C1287      H1293   1.110       .  S
C1290      H1294   1.110       .  S
C1290      H1295   1.110       .  S
C1290      H1296   1.111       .  S
C1297      C1298   1.406       .  A
C1297      C1302   1.395       .  A
C1297      H1304   1.085       .  S
C1298      C1299   1.408       .  A
C1299      C1300   1.408       .  A
C1299      C1306   1.505       .  S
C1300      C1301   1.407       .  A
C1300      H1305   1.084       .  S
C1301      C1302   1.406       .  A
C1302      C1303   1.507       .  S
C1303      H1307   1.111       .  S
C1303      H1308   1.110       .  S
C1303      H1309   1.110       .  S
C1306      H1310   1.110       .  S
C1306      H1311   1.109       .  S
C1306      H1312   1.111       .  S
C1313      C1314   1.402   1_565  A
C1313      C1318   1.396       .  A
C1313      H1320   1.085       .  S
C1314      C1315   1.409       .  A
C1315      C1316   1.402       .  A
C1315      C1322   1.507       .  S
C1316      C1317   1.406   1_545  A
C1316      H1321   1.084       .  S
C1317      C1318   1.415       .  A
C1318      C1319   1.510       .  S
C1319      H1323   1.111       .  S
C1319      H1324   1.110       .  S
C1319      H1325   1.110       .  S
C1322      H1326   1.111       .  S
C1322      H1327   1.109       .  S
C1322      H1328   1.111       .  S
C1329      C1330   1.407   1_556  A
C1329      C1334   1.400   1_556  A
C1329      H1336   1.085       .  S
C1330      C1331   1.410       .  A
C1331      C1332   1.410       .  A
C1331      C1338   1.504       .  S
C1332      C1333   1.406       .  A
C1332      H1337   1.084       .  S
C1333      C1334   1.410       .  A
C1334      C1335   1.508   1_554  S
C1335      H1339   1.111       .  S
C1335      H1340   1.110   1_556  S
C1335      H1341   1.110       .  S
C1338      H1342   1.109       .  S
C1338      H1343   1.110   1_554  S
C1338      H1344   1.111       .  S
C1345      C1346   1.406       .  A
C1345      C1350   1.403       .  A
C1345      H1352   1.084       .  S
C1346      C1347   1.400       .  A
C1347      C1348   1.392       .  A
C1347      C1354   1.507       .  S
C1348      C1349   1.409       .  A
C1348      H1353   1.084       .  S
C1349      C1350   1.405       .  A
C1350      C1351   1.505       .  S
C1351      H1355   1.111       .  S
C1351      H1356   1.108       .  S
C1351      H1357   1.111       .  S
C1354      H1358   1.110       .  S
C1354      H1359   1.110   1_545  S
C1354      H1360   1.111       .  S
C1361      C1362   1.397   1_545  A
C1361      C1366   1.402   1_545  A
C1361      H1368   1.084       .  S
C1362      C1363   1.412       .  A
C1363      C1364   1.406       .  A
C1363      C1370   1.506       .  S
C1364      C1365   1.401       .  A
C1364      H1369   1.084       .  S
C1365      C1366   1.420       .  A
C1366      C1367   1.508   1_565  S
C1367      H1371   1.111       .  S
C1367      H1372   1.109   1_545  S
C1367      H1373   1.106       .  S
C1370      H1374   1.110       .  S
C1370      H1375   1.111   1_565  S
C1370      H1376   1.111       .  S
C1377      C1378   1.407       .  A
C1377      C1382   1.395       .  A
C1377      H1384   1.084       .  S
C1378      C1379   1.409       .  A
C1379      C1380   1.409       .  A
C1379      C1386   1.505       .  S
C1380      C1381   1.407       .  A
C1380      H1385   1.084       .  S
C1381      C1382   1.404       .  A
C1382      C1383   1.507       .  S
C1383      H1387   1.111       .  S
C1383      H1388   1.110       .  S
C1383      H1389   1.109   1_565  S
C1386      H1390   1.108       .  S
C1386      H1391   1.110       .  S
C1386      H1392   1.111       .  S
C1393      C1394   1.394       .  A
C1393      C1398   1.393       .  A
C1393      H1400   1.085       .  S
C1394      C1395   1.407       .  A
C1395      C1396   1.397       .  A
C1395      C1402   1.506       .  S
C1396      C1397   1.403       .  A
C1396      H1401   1.084       .  S
C1397      C1398   1.422       .  A
C1398      C1399   1.513       .  S
C1399      H1403   1.111       .  S
C1399      H1404   1.108       .  S
C1399      H1405   1.111       .  S
C1402      H1406   1.110       .  S
C1402      H1407   1.108       .  S
C1402      H1408   1.111       .  S
C1409      C1410   1.407       .  A
C1409      C1414   1.389       .  A
C1409      H1416   1.084       .  S
C1410      C1411   1.407       .  A
C1411      C1412   1.403       .  A
C1411      C1418   1.506       .  S
C1412      C1413   1.404       .  A
C1412      H1417   1.084       .  S
C1413      C1414   1.403       .  A
C1414      C1415   1.508       .  S
C1415      H1419   1.111       .  S
C1415      H1420   1.109       .  S
C1415      H1421   1.110       .  S
C1418      H1422   1.110       .  S
C1418      H1423   1.107       .  S
C1418      H1424   1.110       .  S
C1425      C1426   1.413       .  A
C1425      C1430   1.432       .  A
C1425      H1432   1.083       .  S
C1426      C1427   1.417       .  A
C1427      C1428   1.418       .  A
C1427      C1434   1.507       .  S
C1428      C1429   1.413       .  A
C1428      H1433   1.083       .  S
C1429      C1430   1.426       .  A
C1430      C1431   1.504       .  S
C1431      H1435   1.111       .  S
C1431      H1436   1.110       .  S
C1431      H1437   1.109       .  S
C1434      H1438   1.110       .  S
C1434      H1439   1.110       .  S
C1434      H1440   1.111       .  S
C1441      C1442   1.400       .  A
C1441      C1446   1.404       .  A
C1441      H1448   1.084       .  S
C1442      C1443   1.420   1_554  A
C1443      C1444   1.409       .  A
C1443      C1450   1.506       .  S
C1444      C1445   1.402   1_556  A
C1444      H1449   1.084       .  S
C1445      C1446   1.417       .  A
C1446      C1447   1.505       .  S
C1447      H1451   1.111       .  S
C1447      H1452   1.108       .  S
C1447      H1453   1.110       .  S
C1450      H1454   1.110       .  S
C1450      H1455   1.107       .  S
C1450      H1456   1.111       .  S
C1457      C1458   1.405   1_565  A
C1457      C1462   1.406       .  A
C1457      H1464   1.084       .  S
C1458      C1459   1.416       .  A
C1459      C1460   1.394       .  A
C1459      C1466   1.508       .  S
C1460      C1461   1.400       .  A
C1460      H1465   1.085       .  S
C1461      C1462   1.414   1_545  A
C1462      C1463   1.507       .  S
C1463      H1467   1.111       .  S
C1463      H1468   1.110       .  S
C1463      H1469   1.109       .  S
C1466      H1470   1.108       .  S
C1466      H1471   1.109       .  S
C1466      H1472   1.111       .  S
C1473      C1474   1.404       .  A
C1473      C1478   1.407       .  A
C1473      H1480   1.084       .  S
C1474      C1475   1.416       .  A
C1475      C1476   1.399       .  A
C1475      C1482   1.509       .  S
C1476      C1477   1.400       .  A
C1476      H1481   1.085       .  S
C1477      C1478   1.413       .  A
C1478      C1479   1.505       .  S
C1479      H1483   1.111   1_545  S
C1479      H1484   1.109   1_545  S
C1479      H1485   1.111       .  S
C1482      H1486   1.110       .  S
C1482      H1487   1.109       .  S
C1482      H1488   1.111       .  S
C1489      C1490   1.404   1_655  A
C1489      C1494   1.399       .  A
C1489      H1496   1.084       .  S
C1490      C1491   1.411       .  A
C1491      C1492   1.396       .  A
C1491      C1498   1.509       .  S
C1492      C1493   1.403       .  A
C1492      H1497   1.085       .  S
C1493      C1494   1.409   1_455  A
C1494      C1495   1.506       .  S
C1495      H1499   1.111       .  S
C1495      H1500   1.109       .  S
C1495      H1501   1.109       .  S
C1498      H1502   1.110       .  S
C1498      H1503   1.110       .  S
C1498      H1504   1.111       .  S
C1505      C1506   1.404       .  A
C1505      C1510   1.403       .  A
C1505      H1512   1.084       .  S
C1506      C1507   1.413   1_655  A
C1507      C1508   1.395       .  A
C1507      C1514   1.510       .  S
C1508      C1509   1.403       .  A
C1508      H1513   1.083       .  S
C1509      C1510   1.408   1_455  A
C1510      C1511   1.505       .  S
C1511      H1515   1.111       .  S
C1511      H1516   1.110       .  S
C1511      H1517   1.110       .  S
C1514      H1518   1.110       .  S
C1514      H1519   1.109       .  S
C1514      H1520   1.111       .  S
C1521      C1522   1.397       .  A
C1521      C1526   1.393       .  A
C1521      H1528   1.085       .  S
C1522      C1523   1.412   1_554  A
C1523      C1524   1.408       .  A
C1523      C1530   1.504       .  S
C1524      C1525   1.404   1_556  A
C1524      H1529   1.084       .  S
C1525      C1526   1.416       .  A
C1526      C1527   1.506       .  S
C1527      H1531   1.111       .  S
C1527      H1532   1.107       .  S
C1527      H1533   1.110       .  S
C1530      H1534   1.110       .  S
C1530      H1535   1.110       .  S
C1530      H1536   1.111       .  S
C1537      C1538   1.398       .  A
C1537      C1542   1.396       .  A
C1537      H1544   1.085       .  S
C1538      C1539   1.414       .  A
C1539      C1540   1.408       .  A
C1539      C1546   1.506   1_554  S
C1540      C1541   1.405       .  A
C1540      H1545   1.084   1_554  S
C1541      C1542   1.415       .  A
C1542      C1543   1.505       .  S
C1543      H1547   1.110       .  S
C1543      H1548   1.110       .  S
C1543      H1549   1.108       .  S
C1546      H1550   1.109       .  S
C1546      H1551   1.110       .  S
C1546      H1552   1.111       .  S
C1553      C1554   1.405       .  A
C1553      C1558   1.393       .  A
C1553      H1560   1.084       .  S
C1554      C1555   1.408       .  A
C1555      C1556   1.408       .  A
C1555      C1562   1.504       .  S
C1556      C1557   1.406       .  A
C1556      H1561   1.084       .  S
C1557      C1558   1.404       .  A
C1558      C1559   1.508       .  S
C1559      H1563   1.111       .  S
C1559      H1564   1.110       .  S
C1559      H1565   1.110       .  S
C1562      H1566   1.109       .  S
C1562      H1567   1.110       .  S
C1562      H1568   1.111       .  S
C1569      C1570   1.407       .  A
C1569      C1574   1.409       .  A
C1569      H1576   1.084       .  S
C1570      C1571   1.407       .  A
C1571      C1572   1.395       .  A
C1571      C1578   1.507       .  S
C1572      C1573   1.405       .  A
C1572      H1577   1.085       .  S
C1573      C1574   1.409       .  A
C1574      C1575   1.504       .  S
C1575      H1579   1.111       .  S
C1575      H1580   1.110       .  S
C1575      H1581   1.110       .  S
C1578      H1582   1.110       .  S
C1578      H1583   1.110       .  S
C1578      H1584   1.111       .  S
C1585      C1586   1.392       .  A
C1585      C1590   1.397       .  A
C1585      H1592   1.085       .  S
C1586      C1587   1.407       .  A
C1587      C1588   1.395       .  A
C1587      C1594   1.507       .  S
C1588      C1589   1.404       .  A
C1588      H1593   1.084       .  S
C1589      C1590   1.426       .  A
C1590      C1591   1.510       .  S
C1591      H1595   1.111       .  S
C1591      H1596   1.108       .  S
C1591      H1597   1.110       .  S
C1594      H1598   1.110       .  S
C1594      H1599   1.107       .  S
C1594      H1600   1.111       .  S
C1601      C1602   1.408       .  A
C1601      C1606   1.407       .  A
C1601      H1608   1.084       .  S
C1602      C1603   1.418       .  A
C1603      C1604   1.385       .  A
C1603      C1610   1.509       .  S
C1604      C1605   1.393       .  A
C1604      H1609   1.083       .  S
C1605      C1606   1.410       .  A
C1606      C1607   1.504       .  S
C1607      H1611   1.111       .  S
C1607      H1612   1.110       .  S
C1607      H1613   1.110       .  S
C1610      H1614   1.109       .  S
C1610      H1615   1.106       .  S
C1610      H1616   1.111       .  S
C1617      C1618   1.411       .  A
C1617      C1622   1.417       .  A
C1617      H1624   1.084       .  S
C1618      C1619   1.420       .  A
C1619      C1620   1.434       .  A
C1619      C1626   1.503       .  S
C1620      C1621   1.420       .  A
C1620      H1625   1.083       .  S
C1621      C1622   1.426       .  A
C1622      C1623   1.510       .  S
C1623      H1627   1.111       .  S
C1623      H1628   1.111       .  S
C1623      H1629   1.110       .  S
C1626      H1630   1.111       .  S
C1626      H1631   1.110       .  S
C1626      H1632   1.111       .  S
C1633      C1634   1.405       .  A
C1633      C1638   1.402       .  A
C1633      H1640   1.084       .  S
C1634      C1635   1.407       .  A
C1635      C1636   1.398       .  A
C1635      C1642   1.507       .  S
C1636      C1637   1.408       .  A
C1636      H1641   1.084       .  S
C1637      C1638   1.409       .  A
C1638      C1639   1.506       .  S
C1639      H1643   1.111       .  S
C1639      H1644   1.110       .  S
C1639      H1645   1.109       .  S
C1642      H1646   1.110       .  S
C1642      H1647   1.110       .  S
C1642      H1648   1.110       .  S
C1649      C1650   1.402       .  A
C1649      C1654   1.406       .  A
C1649      H1656   1.084       .  S
C1650      C1651   1.424       .  A
C1651      C1652   1.398       .  A
C1651      C1658   1.510       .  S
C1652      C1653   1.393       .  A
C1652      H1657   1.085       .  S
C1653      C1654   1.412       .  A
C1654      C1655   1.505       .  S
C1655      H1659   1.111       .  S
C1655      H1660   1.111       .  S
C1655      H1661   1.110       .  S
C1658      H1662   1.107       .  S
C1658      H1663   1.107       .  S
C1658      H1664   1.111       .  S
C1665      C1666   1.397       .  A
C1665      C1670   1.402       .  A
C1665      H1672   1.085       .  S
C1666      C1667   1.414       .  A
C1667      C1668   1.412       .  A
C1667      C1674   1.505       .  S
C1668      C1669   1.405       .  A
C1668      H1673   1.084       .  S
C1669      C1670   1.422       .  A
C1670      C1671   1.510       .  S
C1671      H1675   1.109       .  S
C1671      H1676   1.107       .  S
C1671      H1677   1.111       .  S
C1674      H1678   1.110       .  S
C1674      H1679   1.110       .  S
C1674      H1680   1.111       .  S
C1681      C1682   1.406       .  A
C1681      C1686   1.410       .  A
C1681      H1688   1.084       .  S
C1682      C1683   1.416       .  A
C1683      C1684   1.391       .  A
C1683      C1690   1.506       .  S
C1684      C1685   1.395       .  A
C1684      H1689   1.085       .  S
C1685      C1686   1.412       .  A
C1686      C1687   1.505       .  S
C1687      H1691   1.111       .  S
C1687      H1692   1.110       .  S
C1687      H1693   1.110       .  S
C1690      H1694   1.108       .  S
C1690      H1695   1.109       .  S
C1690      H1696   1.111       .  S
C1697      C1698   1.396       .  A
C1697      C1702   1.396       .  A
C1697      H1704   1.085       .  S
C1698      C1699   1.412       .  A
C1699      C1700   1.405       .  A
C1699      C1706   1.505       .  S
C1700      C1701   1.404       .  A
C1700      H1705   1.084       .  S
C1701      C1702   1.417       .  A
C1702      C1703   1.507       .  S
C1703      H1707   1.110       .  S
C1703      H1708   1.110       .  S
C1703      H1709   1.108       .  S
C1706      H1710   1.109       .  S
C1706      H1711   1.110       .  S
C1706      H1712   1.111       .  S
C1713      C1714   1.408       .  A
C1713      C1718   1.411       .  A
C1713      H1720   1.084       .  S
C1714      C1715   1.407       .  A
C1715      C1716   1.393       .  A
C1715      C1722   1.508       .  S
C1716      C1717   1.403       .  A
C1716      H1721   1.083       .  S
C1717      C1718   1.409       .  A
C1718      C1719   1.504       .  S
C1719      H1723   1.111       .  S
C1719      H1724   1.110       .  S
C1719      H1725   1.109       .  S
C1722      H1726   1.110       .  S
C1722      H1727   1.110       .  S
C1722      H1728   1.111       .  S
C1729      C1730   1.404       .  A
C1729      C1734   1.402       .  A
C1729      H1736   1.084       .  S
C1730      C1731   1.413       .  A
C1731      C1732   1.400       .  A
C1731      C1738   1.508       .  S
C1732      C1733   1.404       .  A
C1732      H1737   1.085       .  S
C1733      C1734   1.411       .  A
C1734      C1735   1.503       .  S
C1735      H1739   1.110       .  S
C1735      H1740   1.106       .  S
C1735      H1741   1.110       .  S
C1738      H1742   1.109       .  S
C1738      H1743   1.110       .  S
C1738      H1744   1.111       .  S
C1745      C1746   1.393       .  A
C1745      C1750   1.391       .  A
C1745      H1752   1.086       .  S
C1746      C1747   1.413       .  A
C1747      C1748   1.408       .  A
C1747      C1754   1.504       .  S
C1748      C1749   1.403       .  A
C1748      H1753   1.084       .  S
C1749      C1750   1.424       .  A
C1750      C1751   1.510       .  S
C1751      H1755   1.110       .  S
C1751      H1756   1.105       .  S
C1751      H1757   1.109       .  S
C1754      H1758   1.111       .  S
C1754      H1759   1.109       .  S
C1754      H1760   1.111       .  S
C1761      C1762   1.403       .  A
C1761      C1766   1.396       .  A
C1761      H1768   1.085       .  S
C1762      C1763   1.410       .  A
C1763      C1764   1.412       .  A
C1763      C1770   1.505       .  S
C1764      C1765   1.408       .  A
C1764      H1769   1.084       .  S
C1765      C1766   1.410       .  A
C1766      C1767   1.509       .  S
C1767      H1771   1.111       .  S
C1767      H1772   1.110       .  S
C1767      H1773   1.109       .  S
C1770      H1774   1.110       .  S
C1770      H1775   1.111       .  S
C1770      H1776   1.110       .  S
C1777      C1778   1.396       .  A
C1777      C1782   1.396       .  A
C1777      H1784   1.084       .  S
C1778      C1779   1.417       .  A
C1779      C1780   1.394       .  A
C1779      C1786   1.508       .  S
C1780      C1781   1.394       .  A
C1780      H1785   1.085       .  S
C1781      C1782   1.412       .  A
C1782      C1783   1.508       .  S
C1783      H1787   1.111       .  S
C1783      H1788   1.109       .  S
C1783      H1789   1.110       .  S
C1786      H1790   1.111       .  S
C1786      H1791   1.106       .  S
C1786      H1792   1.110       .  S
C1793      C1794   1.393       .  A
C1793      C1798   1.393       .  A
C1793      H1800   1.085       .  S
C1794      C1795   1.412       .  A
C1795      C1796   1.405       .  A
C1795      C1802   1.506       .  S
C1796      C1797   1.402       .  A
C1796      H1801   1.083       .  S
C1797      C1798   1.416       .  A
C1798      C1799   1.505       .  S
C1799      H1803   1.111       .  S
C1799      H1804   1.108       .  S
C1799      H1805   1.104       .  S
C1802      H1806   1.110       .  S
C1802      H1807   1.110       .  S
C1802      H1808   1.111       .  S
C1809      C1810   1.406       .  A
C1809      C1814   1.397       .  A
C1809      H1816   1.085       .  S
C1810      C1811   1.407       .  A
C1811      C1812   1.403       .  A
C1811      C1818   1.505       .  S
C1812      C1813   1.405       .  A
C1812      H1817   1.084       .  S
C1813      C1814   1.410       .  A
C1814      C1815   1.507       .  S
C1815      H1819   1.109       .  S
C1815      H1820   1.110       .  S
C1815      H1821   1.109       .  S
C1818      H1822   1.110       .  S
C1818      H1823   1.111       .  S
C1818      H1824   1.111       .  S
C1825      C1826   1.404       .  A
C1825      C1830   1.394       .  A
C1825      H1832   1.085       .  S
C1826      C1827   1.408       .  A
C1827      C1828   1.408       .  A
C1827      C1834   1.505       .  S
C1828      C1829   1.406       .  A
C1828      H1833   1.084       .  S
C1829      C1830   1.406       .  A
C1830      C1831   1.508       .  S
C1831      H1835   1.110       .  S
C1831      H1836   1.110       .  S
C1831      H1837   1.110       .  S
C1834      H1838   1.110       .  S
C1834      H1839   1.110       .  S
C1834      H1840   1.111       .  S
C1841      C1842   1.396       .  A
C1841      C1846   1.399       .  A
C1841      H1848   1.085       .  S
C1842      C1843   1.413       .  A
C1843      C1844   1.405       .  A
C1843      C1850   1.506       .  S
C1844      C1845   1.401       .  A
C1844      H1849   1.084       .  S
C1845      C1846   1.419       .  A
C1846      C1847   1.510       .  S
C1847      H1851   1.111       .  S
C1847      H1852   1.110       .  S
C1847      H1853   1.108       .  S
C1850      H1854   1.110       .  S
C1850      H1855   1.110       .  S
C1850      H1856   1.111       .  S
C1857      C1858   1.392       .  A
C1857      C1862   1.391       .  A
C1857      H1864   1.085       .  S
C1858      C1859   1.411       .  A
C1859      C1860   1.400       .  A
C1859      C1866   1.506       .  S
C1860      C1861   1.399       .  A
C1860      H1865   1.084       .  S
C1861      C1862   1.420       .  A
C1862      C1863   1.510       .  S
C1863      H1867   1.111       .  S
C1863      H1868   1.109       .  S
C1863      H1869   1.107       .  S
C1866      H1870   1.109       .  S
C1866      H1871   1.110       .  S
C1866      H1872   1.111       .  S
C1873      C1874   1.402       .  A
C1873      C1878   1.401       .  A
C1873      H1880   1.084       .  S
C1874      C1875   1.406       .  A
C1875      C1876   1.397       .  A
C1875      C1882   1.506       .  S
C1876      C1877   1.407       .  A
C1876      H1881   1.084       .  S
C1877      C1878   1.408       .  A
C1878      C1879   1.506       .  S
C1879      H1883   1.111       .  S
C1879      H1884   1.111       .  S
C1879      H1885   1.110       .  S
C1882      H1886   1.110       .  S
C1882      H1887   1.110       .  S
C1882      H1888   1.111       .  S
C1889      C1890   1.395       .  A
C1889      C1894   1.394       .  A
C1889      H1896   1.085       .  S
C1890      C1891   1.413       .  A
C1891      C1892   1.407       .  A
C1891      C1898   1.505       .  S
C1892      C1893   1.404       .  A
C1892      H1897   1.084       .  S
C1893      C1894   1.416       .  A
C1894      C1895   1.505       .  S
C1895      H1899   1.111       .  S
C1895      H1900   1.106       .  S
C1895      H1901   1.110       .  S
C1898      H1902   1.110       .  S
C1898      H1903   1.109       .  S
C1898      H1904   1.111       .  S
C1905      C1906   1.415       .  A
C1905      C1910   1.400       .  A
C1905      H1912   1.084       .  S
C1906      C1907   1.416       .  A
C1907      C1908   1.397       .  A
C1907      C1914   1.510       .  S
C1908      C1909   1.404       .  A
C1908      H1913   1.085       .  S
C1909      C1910   1.403       .  A
C1910      C1911   1.507       .  S
C1911      H1915   1.111       .  S
C1911      H1916   1.111       .  S
C1911      H1917   1.110       .  S
C1914      H1918   1.110       .  S
C1914      H1919   1.110       .  S
C1914      H1920   1.111       .  S
C1921      C1922   1.409       .  A
C1921      C1926   1.411       .  A
C1921      H1928   1.080       .  S
C1922      C1923   1.419       .  A
C1923      C1924   1.381       .  A
C1923      C1930   1.507       .  S
C1924      C1925   1.391       .  A
C1924      H1929   1.087       .  S
C1925      C1926   1.407       .  A
C1926      C1927   1.502       .  S
C1927      H1931   1.111       .  S
C1927      H1932   1.111       .  S
C1927      H1933   1.110       .  S
C1930      H1934   1.106       .  S
C1930      H1935   1.102       .  S
C1930      H1936   1.105       .  S
C1937      C1938   1.419       .  A
C1937      C1942   1.438       .  A
C1937      H1944   1.083       .  S
C1938      C1939   1.419       .  A
C1939      C1940   1.411       .  A
C1939      C1946   1.510       .  S
C1940      C1941   1.417       .  A
C1940      H1945   1.082       .  S
C1941      C1942   1.425       .  A
C1942      C1943   1.502       .  S
C1943      H1947   1.111       .  S
C1943      H1948   1.110       .  S
C1943      H1949   1.110       .  S
C1946      H1950   1.106       .  S
C1946      H1951   1.105       .  S
C1946      H1952   1.111       .  S
C1953      C1954   1.394       .  A
C1953      C1958   1.399       .  A
C1953      H1960   1.085       .  S
C1954      C1955   1.412       .  A
C1955      C1956   1.410       .  A
C1955      C1962   1.505       .  S
C1956      C1957   1.405       .  A
C1956      H1961   1.084       .  S
C1957      C1958   1.424       .  A
C1958      C1959   1.510       .  S
C1959      H1963   1.109       .  S
C1959      H1964   1.106       .  S
C1959      H1965   1.110       .  S
C1962      H1966   1.111       .  S
C1962      H1967   1.110       .  S
C1962      H1968   1.111       .  S
C1969      C1970   1.421       .  A
C1969      C1974   1.435       .  A
C1969      H1976   1.083       .  S
C1970      C1971   1.429       .  A
C1971      C1972   1.410       .  A
C1971      C1978   1.514       .  S
C1972      C1973   1.408       .  A
C1972      H1977   1.085       .  S
C1973      C1974   1.418       .  A
C1974      C1975   1.502       .  S
C1975      H1979   1.111       .  S
C1975      H1980   1.110       .  S
C1975      H1981   1.110       .  S
C1978      H1982   1.111       .  S
C1978      H1983   1.106       .  S
C1978      H1984   1.111       .  S
C1985      C1986   1.401       .  A
C1985      C1990   1.396       .  A
C1985      H1992   1.084       .  S
C1986      C1987   1.417       .  A
C1987      C1988   1.411       .  A
C1987      C1994   1.506       .  S
C1988      C1989   1.407       .  A
C1988      H1993   1.084       .  S
C1989      C1990   1.414       .  A
C1990      C1991   1.502       .  S
C1991      H1995   1.111       .  S
C1991      H1996   1.108       .  S
C1991      H1997   1.109       .  S
C1994      H1998   1.110       .  S
C1994      H1999   1.107       .  S
C1994      H2000   1.111       .  S
C2001      C2002   1.388       .  A
C2001      C2006   1.391       .  A
C2001      H2008   1.085       .  S
C2002      C2003   1.408       .  A
C2003      C2004   1.394       .  A
C2003      C2010   1.506       .  S
C2004      C2005   1.400       .  A
C2004      H2009   1.084       .  S
C2005      C2006   1.426       .  A
C2006      C2007   1.512       .  S
C2007      H2011   1.111       .  S
C2007      H2012   1.108       .  S
C2007      H2013   1.111       .  S
C2010      H2014   1.110       .  S
C2010      H2015   1.108       .  S
C2010      H2016   1.111       .  S
C2017      C2018   1.409       .  A
C2017      C2022   1.409       .  A
C2017      H2024   1.084       .  S
C2018      C2019   1.417       .  A
C2019      C2020   1.384       .  A
C2019      C2026   1.510       .  S
C2020      C2021   1.392       .  A
C2020      H2025   1.084       .  S
C2021      C2022   1.408       .  A
C2022      C2023   1.503       .  S
C2023      H2027   1.111       .  S
C2023      H2028   1.110       .  S
C2023      H2029   1.110       .  S
C2026      H2030   1.111       .  S
C2026      H2031   1.107       .  S
C2026      H2032   1.107       .  S
C2033      C2034   1.414       .  A
C2033      C2038   1.416       .  A
C2033      H2040   1.084       .  S
C2034      C2035   1.428       .  A
C2035      C2036   1.434       .  A
C2035      C2042   1.503       .  S
C2036      C2037   1.413       .  A
C2036      H2041   1.083       .  S
C2037      C2038   1.422       .  A
C2038      C2039   1.510       .  S
C2039      H2043   1.110       .  S
C2039      H2044   1.110       .  S
C2039      H2045   1.109       .  S
C2042      H2046   1.110       .  S
C2042      H2047   1.110       .  S
C2042      H2048   1.111       .  S
C2049      C2050   1.405       .  A
C2049      C2054   1.399       .  A
C2049      H2056   1.084       .  S
C2050      C2051   1.420       .  A
C2051      C2052   1.399       .  A
C2051      C2058   1.510       .  S
C2052      C2053   1.398       .  A
C2052      H2057   1.085       .  S
C2053      C2054   1.407       .  A
C2054      C2055   1.506       .  S
C2055      H2059   1.111       .  S
C2055      H2060   1.110       .  S
C2055      H2061   1.111       .  S
C2058      H2062   1.110       .  S
C2058      H2063   1.107       .  S
C2058      H2064   1.111       .  S
C2065      C2066   1.396       .  A
C2065      C2070   1.394       .  A
C2065      H2072   1.085       .  S
C2066      C2067   1.419       .  A
C2067      C2068   1.428       .  A
C2067      C2074   1.501       .  S
C2068      C2069   1.412       .  A
C2068      H2073   1.083       .  S
C2069      C2070   1.430       .  A
C2070      C2071   1.509       .  S
C2071      H2075   1.111       .  S
C2071      H2076   1.109       .  S
C2071      H2077   1.108       .  S
C2074      H2078   1.110       .  S
C2074      H2079   1.110       .  S
C2074      H2080   1.111       .  S
C2081      C2082   1.407       .  A
C2081      C2086   1.406       .  A
C2081      H2088   1.084       .  S
C2082      C2083   1.429       .  A
C2083      C2084   1.403       .  A
C2083      C2090   1.511       .  S
C2084      C2085   1.396       .  A
C2084      H2089   1.084       .  S
C2085      C2086   1.415       .  A
C2086      C2087   1.508       .  S
C2087      H2091   1.111       .  S
C2087      H2092   1.108       .  S
C2087      H2093   1.110       .  S
C2090      H2094   1.111       .  S
C2090      H2095   1.110       .  S
C2090      H2096   1.111       .  S
C2097      C2098   1.401       .  A
C2097      C2102   1.404       .  A
C2097      H2104   1.084       .  S
C2098      C2099   1.420       .  A
C2099      C2100   1.424       .  A
C2099      C2106   1.502       .  S
C2100      C2101   1.410       .  A
C2100      H2105   1.083       .  S
C2101      C2102   1.433       .  A
C2102      C2103   1.514       .  S
C2103      H2107   1.111       .  S
C2103      H2108   1.110       .  S
C2103      H2109   1.106       .  S
C2106      H2110   1.110       .  S
C2106      H2111   1.110       .  S
C2106      H2112   1.111       .  S
C2113      C2114   1.396       .  A
C2113      C2118   1.405       .  A
C2113      H2120   1.085       .  S
C2114      C2115   1.413       .  A
C2115      C2116   1.405       .  A
C2115      C2122   1.508       .  S
C2116      C2117   1.407       .  A
C2116      H2121   1.084       .  S
C2117      C2118   1.430       .  A
C2118      C2119   1.511       .  S
C2119      H2123   1.111       .  S
C2119      H2124   1.110       .  S
C2119      H2125   1.107       .  S
C2122      H2126   1.109       .  S
C2122      H2127   1.111       .  S
C2122      H2128   1.111       .  S
C2129      C2130   1.411       .  A
C2129      C2134   1.398       .  A
C2129      H2136   1.082       .  S
C2130      C2131   1.418       .  A
C2131      C2132   1.414       .  A
C2131      C2138   1.505       .  S
C2132      C2133   1.405       .  A
C2132      H2137   1.084       .  S
C2133      C2134   1.407       .  A
C2134      C2135   1.509       .  S
C2135      H2139   1.111       .  S
C2135      H2140   1.110       .  S
C2135      H2141   1.110       .  S
C2138      H2142   1.110       .  S
C2138      H2143   1.110       .  S
C2138      H2144   1.111       .  S
C2145      C2146   1.413       .  A
C2145      C2150   1.409       .  A
C2145      H2152   1.079       .  S
C2146      C2147   1.416       .  A
C2147      C2148   1.415       .  A
C2147      C2154   1.507       .  S
C2148      C2149   1.415       .  A
C2148      H2153   1.084       .  S
C2149      C2150   1.414       .  A
C2150      C2151   1.507       .  S
C2151      H2155   1.107       .  S
C2151      H2156   1.110       .  S
C2151      H2157   1.110       .  S
C2154      H2158   1.111       .  S
C2154      H2159   1.111       .  S
C2154      H2160   1.111       .  S
C2161      C2162   1.417       .  A
C2161      C2166   1.429       .  A
C2161      H2168   1.083       .  S
C2162      C2163   1.440       .  A
C2163      C2164   1.418       .  A
C2163      C2170   1.503       .  S
C2164      C2165   1.399       .  A
C2164      H2169   1.085       .  S
C2165      C2166   1.420       .  A
C2166      C2167   1.504       .  S
C2167      H2171   1.111       .  S
C2167      H2172   1.110       .  S
C2167      H2173   1.110       .  S
C2170      H2174   1.111       .  S
C2170      H2175   1.089       .  S
C2170      H2176   1.111       .  S
C2177      C2178   1.401       .  A
C2177      C2182   1.400       .  A
C2177      H2184   1.085       .  S
C2178      C2179   1.408       .  A
C2179      C2180   1.403       .  A
C2179      C2186   1.505       .  S
C2180      C2181   1.408       .  A
C2180      H2185   1.084       .  S
C2181      C2182   1.415       .  A
C2182      C2183   1.509       .  S
C2183      H2187   1.111       .  S
C2183      H2188   1.110       .  S
C2183      H2189   1.109       .  S
C2186      H2190   1.109       .  S
C2186      H2191   1.110       .  S
C2186      H2192   1.109       .  S
C2193      C2194   1.413       .  A
C2193      C2198   1.396       .  A
C2193      H2200   1.083       .  S
C2194      C2195   1.411       .  A
C2195      C2196   1.413       .  A
C2195      C2202   1.504       .  S
C2196      C2197   1.407       .  A
C2196      H2201   1.084       .  S
C2197      C2198   1.404       .  A
C2198      C2199   1.509       .  S
C2199      H2203   1.109       .  S
C2199      H2204   1.111       .  S
C2199      H2205   1.110       .  S
C2202      H2206   1.111       .  S
C2202      H2207   1.110       .  S
C2202      H2208   1.110       .  S
C2209      C2210   1.414       .  A
C2209      C2214   1.399       .  A
C2209      H2216   1.082       .  S
C2210      C2211   1.420       .  A
C2211      C2212   1.411       .  A
C2211      C2218   1.507       .  S
C2212      C2213   1.407       .  A
C2212      H2217   1.084       .  S
C2213      C2214   1.405       .  A
C2214      C2215   1.508       .  S
C2215      H2219   1.110       .  S
C2215      H2220   1.110       .  S
C2215      H2221   1.111       .  S
C2218      H2222   1.109       .  S
C2218      H2223   1.110       .  S
C2218      H2224   1.111       .  S
C2225      C2226   1.413       .  A
C2225      C2230   1.413       .  A
C2225      H2232   1.083       .  S
C2226      C2227   1.425       .  A
C2227      C2228   1.427       .  A
C2227      C2234   1.504       .  S
C2228      C2229   1.410       .  A
C2228      H2233   1.083       .  S
C2229      C2230   1.416       .  A
C2230      C2231   1.508       .  S
C2231      H2235   1.111       .  S
C2231      H2236   1.109       .  S
C2231      H2237   1.110       .  S
C2234      H2238   1.109       .  S
C2234      H2239   1.111       .  S
C2234      H2240   1.111       .  S
C2241      C2242   1.396       .  A
C2241      C2246   1.399       .  A
C2241      H2248   1.084       .  S
C2242      C2243   1.404       .  A
C2243      C2244   1.393       .  A
C2243      C2250   1.509       .  S
C2244      C2245   1.403       .  A
C2244      H2249   1.084       .  S
C2245      C2246   1.419       .  A
C2246      C2247   1.509       .  S
C2247      H2251   1.111       .  S
C2247      H2252   1.111       .  S
C2247      H2253   1.109       .  S
C2250      H2254   1.110       .  S
C2250      H2255   1.111       .  S
C2250      H2256   1.111       .  S
C2257      C2258   1.408       .  A
C2257      C2262   1.404       .  A
C2257      H2264   1.083       .  S
C2258      C2259   1.421       .  A
C2259      C2260   1.417       .  A
C2259      C2266   1.505       .  S
C2260      C2261   1.407       .  A
C2260      H2265   1.084       .  S
C2261      C2262   1.416       .  A
C2262      C2263   1.510       .  S
C2263      H2267   1.111       .  S
C2263      H2268   1.109       .  S
C2263      H2269   1.111       .  S
C2266      H2270   1.110       .  S
C2266      H2271   1.109       .  S
C2266      H2272   1.111       .  S
C2273      C2274   1.408       .  A
C2273      C2278   1.411       .  A
C2273      H2280   1.084       .  S
C2274      C2275   1.433       .  A
C2275      C2276   1.409       .  A
C2275      C2282   1.510       .  S
C2276      C2277   1.397       .  A
C2276      H2281   1.084       .  S
C2277      C2278   1.418       .  A
C2278      C2279   1.507       .  S
C2279      H2283   1.111       .  S
C2279      H2284   1.108       .  S
C2279      H2285   1.110       .  S
C2282      H2286   1.110       .  S
C2282      H2287   1.108       .  S
C2282      H2288   1.111       .  S
C2289      C2290   1.391       .  A
C2289      C2294   1.403       .  A
C2289      H2296   1.085       .  S
C2290      C2291   1.416       .  A
C2291      C2292   1.425       .  A
C2291      C2298   1.503       .  S
C2292      C2293   1.413       .  A
C2292      H2297   1.083       .  S
C2293      C2294   1.436       .  A
C2294      C2295   1.509       .  S
C2295      H2299   1.111       .  S
C2295      H2300   1.104       .  S
C2295      H2301   1.110       .  S
C2298      H2302   1.110       .  S
C2298      H2303   1.111       .  S
C2298      H2304   1.111       .  S
C2305      C2306   1.412       .  A
C2305      C2310   1.408       .  A
C2305      H2312   1.081       .  S
C2306      C2307   1.419       .  A
C2307      C2308   1.412       .  A
C2307      C2314   1.508       .  S
C2308      C2309   1.413       .  A
C2308      H2313   1.084       .  S
C2309      C2310   1.414       .  A
C2310      C2311   1.501       .  S
C2311      H2315   1.110       .  S
C2311      H2316   1.108       .  S
C2311      H2317   1.110       .  S
C2314      H2318   1.109       .  S
C2314      H2319   1.110       .  S
C2314      H2320   1.111       .  S
C2321      C2322   1.421       .  A
C2321      C2326   1.440       .  A
C2321      H2328   1.083       .  S
C2322      C2323   1.415       .  A
C2323      C2324   1.407       .  A
C2323      C2330   1.507       .  S
C2324      C2325   1.418       .  A
C2324      H2329   1.079       .  S
C2325      C2326   1.426       .  A
C2326      C2327   1.503       .  S
C2327      H2331   1.111       .  S
C2327      H2332   1.108       .  S
C2327      H2333   1.110       .  S
C2330      H2334   1.102       .  S
C2330      H2335   1.102       .  S
C2330      H2336   1.111       .  S
C2337      C2338   1.402       .  A
C2337      C2342   1.402       .  A
C2337      H2344   1.084       .  S
C2338      C2339   1.415       .  A
C2339      C2340   1.394       .  A
C2339      C2346   1.513       .  S
C2340      C2341   1.408       .  A
C2340      H2345   1.084       .  S
C2341      C2342   1.420       .  A
C2342      C2343   1.509       .  S
C2343      H2347   1.111       .  S
C2343      H2348   1.111       .  S
C2343      H2349   1.110       .  S
C2346      H2350   1.108       .  S
C2346      H2351   1.110       .  S
C2346      H2352   1.111       .  S
C2353      C2354   1.412       .  A
C2353      C2358   1.425       .  A
C2353      H2360   1.084       .  S
C2354      C2355   1.409       .  A
C2355      C2356   1.408       .  A
C2355      C2362   1.507       .  S
C2356      C2357   1.412       .  A
C2356      H2361   1.083       .  S
C2357      C2358   1.422       .  A
C2358      C2359   1.507       .  S
C2359      H2363   1.109       .  S
C2359      H2364   1.111       .  S
C2359      H2365   1.109       .  S
C2362      H2366   1.110       .  S
C2362      H2367   1.109       .  S
C2362      H2368   1.110       .  S
C2369      C2370   1.409       .  A
C2369      C2374   1.398       .  A
C2369      H2376   1.084       .  S
C2370      C2371   1.414       .  A
C2371      C2372   1.406       .  A
C2371      C2378   1.505       .  S
C2372      C2373   1.404       .  A
C2372      H2377   1.084       .  S
C2373      C2374   1.407       .  A
C2374      C2375   1.508       .  S
C2375      H2379   1.111       .  S
C2375      H2380   1.109       .  S
C2375      H2381   1.110       .  S
C2378      H2382   1.111       .  S
C2378      H2383   1.105       .  S
C2378      H2384   1.105       .  S
C2385      C2386   1.413       .  A
C2385      C2390   1.420       .  A
C2385      H2392   1.083       .  S
C2386      C2387   1.428       .  A
C2387      C2388   1.404       .  A
C2387      C2394   1.512       .  S
C2388      C2389   1.400       .  A
C2388      H2393   1.085       .  S
C2389      C2390   1.414       .  A
C2390      C2391   1.504       .  S
C2391      H2395   1.110       .  S
C2391      H2396   1.111       .  S
C2391      H2397   1.110       .  S
C2394      H2398   1.110       .  S
C2394      H2399   1.111       .  S
C2394      H2400   1.110       .  S
C2401      C2402   1.418       .  A
C2401      C2406   1.414       .  A
C2401      H2408   1.083       .  S
C2402      C2403   1.419       .  A
C2403      C2404   1.403       .  A
C2403      C2410   1.511       .  S
C2404      C2405   1.409       .  A
C2404      H2409   1.085       .  S
C2405      C2406   1.410       .  A
C2406      C2407   1.506       .  S
C2407      H2411   1.110       .  S
C2407      H2412   1.110       .  S
C2407      H2413   1.110       .  S
C2410      H2414   1.106       .  S
C2410      H2415   1.110       .  S
C2410      H2416   1.111       .  S
C2417      C2418   1.410       .  A
C2417      C2422   1.414       .  A
C2417      H2424   1.083       .  S
C2418      C2419   1.428       .  A
C2419      C2420   1.399       .  A
C2419      C2426   1.503       .  S
C2420      C2421   1.392       .  A
C2420      H2425   1.086       .  S
C2421      C2422   1.411       .  A
C2422      C2423   1.504       .  S
C2423      H2427   1.111       .  S
C2423      H2428   1.110       .  S
C2423      H2429   1.111       .  S
C2426      H2430   1.103       .  S
C2426      H2431   1.107       .  S
C2426      H2432   1.111       .  S
C2433      C2434   1.407       .  A
C2433      C2438   1.400       .  A
C2433      H2440   1.084       .  S
C2434      C2435   1.416       .  A
C2435      C2436   1.411       .  A
C2435      C2442   1.507       .  S
C2436      C2437   1.408       .  A
C2436      H2441   1.084       .  S
C2437      C2438   1.410       .  A
C2438      C2439   1.506       .  S
C2439      H2443   1.111       .  S
C2439      H2444   1.104       .  S
C2439      H2445   1.110       .  S
C2442      H2446   1.110       .  S
C2442      H2447   1.110       .  S
C2442      H2448   1.111       .  S
C2449      C2450   1.411       .  A
C2449      C2454   1.398       .  A
C2449      H2456   1.083       .  S
C2450      C2451   1.418       .  A
C2451      C2452   1.416       .  A
C2451      C2458   1.505       .  S
C2452      C2453   1.406       .  A
C2452      H2457   1.084       .  S
C2453      C2454   1.407       .  A
C2454      C2455   1.509       .  S
C2455      H2459   1.111       .  S
C2455      H2460   1.107       .  S
C2455      H2461   1.110       .  S
C2458      H2462   1.110       .  S
C2458      H2463   1.110       .  S
C2458      H2464   1.111       .  S
C2465      C2466   1.409       .  A
C2465      C2470   1.402       .  A
C2465      H2472   1.083       .  S
C2466      C2467   1.413       .  A
C2467      C2468   1.409       .  A
C2467      C2474   1.506       .  S
C2468      C2469   1.413       .  A
C2468      H2473   1.081       .  S
C2469      C2470   1.420       .  A
C2470      C2471   1.512       .  S
C2471      H2475   1.111       .  S
C2471      H2476   1.106       .  S
C2471      H2477   1.110       .  S
C2474      H2478   1.110       .  S
C2474      H2479   1.110       .  S
C2474      H2480   1.110       .  S
C2481      C2482   1.406       .  A
C2481      C2486   1.411       .  A
C2481      H2488   1.084       .  S
C2482      C2483   1.434       .  A
C2483      C2484   1.391       .  A
C2483      C2490   1.517       .  S
C2484      C2485   1.391       .  A
C2484      H2489   1.086       .  S
C2485      C2486   1.410       .  A
C2486      C2487   1.502       .  S
C2487      H2491   1.111       .  S
C2487      H2492   1.110       .  S
C2487      H2493   1.110       .  S
C2490      H2494   1.107       .  S
C2490      H2495   1.111       .  S
C2490      H2496   1.111       .  S
C2497      C2498   1.419       .  A
C2497      C2502   1.414       .  A
C2497      H2504   1.083       .  S
C2498      C2499   1.420       .  A
C2499      C2500   1.413       .  A
C2499      C2506   1.509       .  S
C2500      C2501   1.411       .  A
C2500      H2505   1.084       .  S
C2501      C2502   1.412       .  A
C2502      C2503   1.507       .  S
C2503      H2507   1.111       .  S
C2503      H2508   1.110       .  S
C2503      H2509   1.110       .  S
C2506      H2510   1.110       .  S
C2506      H2511   1.110       .  S
C2506      H2512   1.111       .  S
C2513      C2514   1.400       .  A
C2513      C2518   1.398       .  A
C2513      H2520   1.085       .  S
C2514      C2515   1.414       .  A
C2515      C2516   1.422       .  A
C2515      C2522   1.503       .  S
C2516      C2517   1.414       .  A
C2516      H2521   1.083       .  S
C2517      C2518   1.427       .  A
C2518      C2519   1.513       .  S
C2519      H2523   1.111       .  S
C2519      H2524   1.110       .  S
C2519      H2525   1.110       .  S
C2522      H2526   1.111       .  S
C2522      H2527   1.111       .  S
C2522      H2528   1.110       .  S
C2529      C2530   1.413       .  A
C2529      C2534   1.402       .  A
C2529      H2536   1.083       .  S
C2530      C2531   1.419       .  A
C2531      C2532   1.407       .  A
C2531      C2538   1.507       .  S
C2532      C2533   1.405       .  A
C2532      H2537   1.084       .  S
C2533      C2534   1.408       .  A
C2534      C2535   1.502       .  S
C2535      H2539   1.111       .  S
C2535      H2540   1.103       .  S
C2535      H2541   1.110       .  S
C2538      H2542   1.110       .  S
C2538      H2543   1.110       .  S
C2538      H2544   1.111       .  S
C2545      C2546   1.409       .  A
C2545      C2550   1.397       .  A
C2545      H2552   1.083       .  S
C2546      C2547   1.417       .  A
C2547      C2548   1.415       .  A
C2547      C2554   1.506       .  S
C2548      C2549   1.407       .  A
C2548      H2553   1.084       .  S
C2549      C2550   1.405       .  A
C2550      C2551   1.508       .  S
C2551      H2555   1.111       .  S
C2551      H2556   1.110       .  S
C2551      H2557   1.109       .  S
C2554      H2558   1.110       .  S
C2554      H2559   1.110       .  S
C2554      H2560   1.111       .  S
C2561      C2562   1.416       .  A
C2561      C2566   1.405       .  A
C2561      H2568   1.083       .  S
C2562      C2563   1.420       .  A
C2563      C2564   1.411       .  A
C2563      C2570   1.508       .  S
C2564      C2565   1.407       .  A
C2564      H2569   1.084       .  S
C2565      C2566   1.408       .  A
C2566      C2567   1.506       .  S
C2567      H2571   1.110       .  S
C2567      H2572   1.107       .  S
C2567      H2573   1.110       .  S
C2570      H2574   1.111       .  S
C2570      H2575   1.110       .  S
C2570      H2576   1.111       .  S
C2577      C2578   1.413       .  A
C2577      C2582   1.416       .  A
C2577      H2584   1.083       .  S
C2578      C2579   1.426       .  A
C2579      C2580   1.396       .  A
C2579      C2586   1.502       .  S
C2580      C2581   1.392       .  A
C2580      H2585   1.086       .  S
C2581      C2582   1.411       .  A
C2582      C2583   1.503       .  S
C2583      H2587   1.111       .  S
C2583      H2588   1.110       .  S
C2583      H2589   1.110       .  S
C2586      H2590   1.105       .  S
C2586      H2591   1.107       .  S
C2586      H2592   1.111       .  S
C2593      C2594   1.403       .  A
C2593      C2598   1.405       .  A
C2593      H2600   1.084       .  S
C2594      C2595   1.426       .  A
C2595      C2596   1.403       .  A
C2595      C2602   1.511       .  S
C2596      C2597   1.395       .  A
C2596      H2601   1.085       .  S
C2597      C2598   1.413       .  A
C2598      C2599   1.507       .  S
C2599      H2603   1.111       .  S
C2599      H2604   1.110       .  S
C2599      H2605   1.110       .  S
C2602      H2606   1.111       .  S
C2602      H2607   1.106       .  S
C2602      H2608   1.111       .  S
C2609      C2610   1.419       .  A
C2609      C2614   1.433       .  A
C2609      H2616   1.083       .  S
C2610      C2611   1.425       .  A
C2611      C2612   1.412       .  A
C2611      C2618   1.511       .  S
C2612      C2613   1.409       .  A
C2612      H2617   1.082       .  S
C2613      C2614   1.420       .  A
C2614      C2615   1.502       .  S
C2615      H2619   1.111       .  S
C2615      H2620   1.110       .  S
C2615      H2621   1.110       .  S
C2618      H2622   1.110       .  S
C2618      H2623   1.110       .  S
C2618      H2624   1.111       .  S
C2625      C2626   1.407       .  A
C2625      C2630   1.398       .  A
C2625      H2632   1.084       .  S
C2626      C2627   1.423       .  A
C2627      C2628   1.400       .  A
C2627      C2634   1.510       .  S
C2628      C2629   1.398       .  A
C2628      H2633   1.085       .  S
C2629      C2630   1.410       .  A
C2630      C2631   1.509       .  S
C2631      H2635   1.111       .  S
C2631      H2636   1.109       .  S
C2631      H2637   1.110       .  S
C2634      H2638   1.110       .  S
C2634      H2639   1.107       .  S
C2634      H2640   1.111       .  S
C2641      C2642   1.410       .  A
C2641      C2646   1.421       .  A
C2641      H2648   1.083       .  S
C2642      C2643   1.436       .  A
C2643      C2644   1.393       .  A
C2643      C2650   1.510       .  S
C2644      C2645   1.389       .  A
C2644      H2649   1.086       .  S
C2645      C2646   1.414       .  A
C2646      C2647   1.501       .  S
C2647      H2651   1.111       .  S
C2647      H2652   1.111       .  S
C2647      H2653   1.110       .  S
C2650      H2654   1.107       .  S
C2650      H2655   1.106       .  S
C2650      H2656   1.111       .  S
C2657      C2658   1.410       .  A
C2657      C2662   1.411       .  A
C2657      H2664   1.084       .  S
C2658      C2659   1.408       .  A
C2659      C2660   1.403       .  A
C2659      C2666   1.500       .  S
C2660      C2661   1.413       .  A
C2660      H2665   1.082       .  S
C2661      C2662   1.419       .  A
C2662      C2663   1.508       .  S
C2663      H2667   1.111       .  S
C2663      H2668   1.111       .  S
C2663      H2669   1.110       .  S
C2666      H2670   1.107       .  S
C2666      H2671   1.110       .  S
C2666      H2672   1.111       .  S
C2673      C2674   1.407       .  A
C2673      C2678   1.420       .  A
C2673      H2680   1.084       .  S
C2674      C2675   1.411       .  A
C2675      C2676   1.405       .  A
C2675      C2682   1.509       .  S
C2676      C2677   1.412       .  A
C2676      H2681   1.083       .  S
C2677      C2678   1.422       .  A
C2678      C2679   1.505       .  S
C2679      H2683   1.111       .  S
C2679      H2684   1.110       .  S
C2679      H2685   1.110       .  S
C2682      H2686   1.109       .  S
C2682      H2687   1.110       .  S
C2682      H2688   1.111       .  S
C2689      C2690   1.416       .  A
C2689      C2694   1.408       .  A
C2689      H2696   1.083       .  S
C2690      C2691   1.420       .  A
C2691      C2692   1.407       .  A
C2691      C2698   1.509       .  S
C2692      C2693   1.408       .  A
C2692      H2697   1.085       .  S
C2693      C2694   1.409       .  A
C2694      C2695   1.507       .  S
C2695      H2699   1.111       .  S
C2695      H2700   1.110   1_455  S
C2695      H2701   1.110   1_455  S
C2698      H2702   1.110       .  S
C2698      H2703   1.110       .  S
C2698      H2704   1.111       .  S
C2705      C2706   1.415       .  A
C2705      C2710   1.408       .  A
C2705      H2712   1.082       .  S
C2706      C2707   1.415       .  A
C2707      C2708   1.420       .  A
C2707      C2714   1.504       .  S
C2708      C2709   1.412       .  A
C2708      H2713   1.084       .  S
C2709      C2710   1.409       .  A
C2710      C2711   1.507       .  S
C2711      H2715   1.111       .  S
C2711      H2716   1.110       .  S
C2711      H2717   1.110       .  S
C2714      H2718   1.110       .  S
C2714      H2719   1.110       .  S
C2714      H2720   1.111       .  S
C2721      C2722   1.404       .  A
C2721      C2726   1.410       .  A
C2721      H2728   1.083       .  S
C2722      C2723   1.403       .  A
C2723      C2724   1.394       .  A
C2723      C2730   1.510       .  S
C2724      C2725   1.413       .  A
C2724      H2729   1.083       .  S
C2725      C2726   1.417       .  A
C2726      C2727   1.506       .  S
C2727      H2731   1.111       .  S
C2727      H2732   1.110       .  S
C2727      H2733   1.110       .  S
C2730      H2734   1.110       .  S
C2730      H2735   1.111       .  S
C2730      H2736   1.111       .  S
C2737      C2738   1.411       .  A
C2737      C2742   1.420       .  A
C2737      H2744   1.083       .  S
C2738      C2739   1.430       .  A
C2739      C2740   1.405       .  A
C2739      C2746   1.511       .  S
C2740      C2741   1.398       .  A
C2740      H2745   1.085       .  S
C2741      C2742   1.417       .  A
C2742      C2743   1.504       .  S
C2743      H2747   1.111       .  S
C2743      H2748   1.110       .  S
C2743      H2749   1.110       .  S
C2746      H2750   1.110       .  S
C2746      H2751   1.107       .  S
C2746      H2752   1.111       .  S
C2753      C2754   1.413       .  A
C2753      C2758   1.407       .  A
C2753      H2760   1.084       .  S
C2754      C2755   1.420       .  A
C2755      C2756   1.406       .  A
C2755      C2762   1.510       .  S
C2756      C2757   1.408       .  A
C2756      H2761   1.084       .  S
C2757      C2758   1.413       .  A
C2758      C2759   1.505       .  S
C2759      H2763   1.111       .  S
C2759      H2764   1.109       .  S
C2759      H2765   1.110       .  S
C2762      H2766   1.109       .  S
C2762      H2767   1.110       .  S
C2762      H2768   1.111       .  S
C2769      C2770   1.417       .  A
C2769      C2774   1.431       .  A
C2769      H2776   1.083       .  S
C2770      C2771   1.440       .  A
C2771      C2772   1.421       .  A
C2771      C2778   1.503       .  S
C2772      C2773   1.401       .  A
C2772      H2777   1.085       .  S
C2773      C2774   1.420       .  A
C2774      C2775   1.504       .  S
C2775      H2779   1.111       .  S
C2775      H2780   1.110       .  S
C2775      H2781   1.111       .  S
C2778      H2782   1.110       .  S
C2778      H2783   1.092       .  S
C2778      H2784   1.110       .  S
C2785      C2786   1.409       .  A
C2785      C2790   1.389       .  A
C2785      H2792   1.084       .  S
C2786      C2787   1.415       .  A
C2787      C2788   1.403       .  A
C2787      C2794   1.507       .  S
C2788      C2789   1.402       .  A
C2788      H2793   1.084       .  S
C2789      C2790   1.405       .  A
C2790      C2791   1.511       .  S
C2791      H2795   1.111       .  S
C2791      H2796   1.108       .  S
C2791      H2797   1.110       .  S
C2794      H2798   1.111       .  S
C2794      H2799   1.109       .  S
C2794      H2800   1.111       .  S
C2801      C2802   1.405       .  A
C2801      C2806   1.413       .  A
C2801      H2808   1.084       .  S
C2802      C2803   1.406       .  A
C2803      C2804   1.400       .  A
C2803      C2810   1.508       .  S
C2804      C2805   1.410       .  A
C2804      H2809   1.083       .  S
C2805      C2806   1.418       .  A
C2806      C2807   1.505       .  S
C2807      H2811   1.111       .  S
C2807      H2812   1.110       .  S
C2807      H2813   1.110       .  S
C2810      H2814   1.110       .  S
C2810      H2815   1.110       .  S
C2810      H2816   1.111       .  S
C2817      C2818   1.411       .  A
C2817      C2822   1.400       .  A
C2817      H2824   1.084       .  S
C2818      C2819   1.416       .  A
C2819      C2820   1.405       .  A
C2819      C2826   1.505       .  S
C2820      C2821   1.402       .  A
C2820      H2825   1.084       .  S
C2821      C2822   1.406       .  A
C2822      C2823   1.508       .  S
C2823      H2827   1.111       .  S
C2823      H2828   1.110       .  S
C2823      H2829   1.110       .  S
C2826      H2830   1.110       .  S
C2826      H2831   1.108       .  S
C2826      H2832   1.111       .  S
C2833      C2834   1.412       .  A
C2833      C2838   1.415       .  A
C2833      H2840   1.082       .  S
C2834      C2835   1.419       .  A
C2835      C2836   1.399       .  A
C2835      C2842   1.504       .  S
C2836      C2837   1.402       .  A
C2836      H2841   1.085       .  S
C2837      C2838   1.413       .  A
C2838      C2839   1.504       .  S
C2839      H2843   1.111       .  S
C2839      H2844   1.110       .  S
C2839      H2845   1.110       .  S
C2842      H2846   1.106       .  S
C2842      H2847   1.109       .  S
C2842      H2848   1.111       .  S
C2849      C2850   1.410       .  A
C2849      C2854   1.404       .  A
C2849      H2856   1.084       .  S
C2850      C2851   1.417       .  A
C2851      C2852   1.407       .  A
C2851      C2858   1.507       .  S
C2852      C2853   1.404       .  A
C2852      H2857   1.084       .  S
C2853      C2854   1.409       .  A
C2854      C2855   1.507       .  S
C2855      H2859   1.111       .  S
C2855      H2860   1.107       .  S
C2855      H2861   1.110       .  S
C2858      H2862   1.110       .  S
C2858      H2863   1.109       .  S
C2858      H2864   1.111       .  S
C2865      C2866   1.413       .  A
C2865      C2870   1.414       .  A
C2865      H2872   1.083       .  S
C2866      C2867   1.424       .  A
C2867      C2868   1.402       .  A
C2867      C2874   1.504       .  S
C2868      C2869   1.398       .  A
C2868      H2873   1.085       .  S
C2869      C2870   1.410       .  A
C2870      C2871   1.503       .  S
C2871      H2875   1.111       .  S
C2871      H2876   1.110       .  S
C2871      H2877   1.110       .  S
C2874      H2878   1.109       .  S
C2874      H2879   1.110       .  S
C2874      H2880   1.111       .  S
C2881      C2882   1.411       .  A
C2881      C2886   1.408       .  A
C2881      H2888   1.082       .  S
C2882      C2883   1.419       .  A
C2883      C2884   1.410       .  A
C2883      C2890   1.510       .  S
C2884      C2885   1.413       .  A
C2884      H2889   1.084       .  S
C2885      C2886   1.412       .  A
C2886      C2887   1.500       .  S
C2887      H2891   1.109       .  S
C2887      H2892   1.108       .  S
C2887      H2893   1.110   1_556  S
C2890      H2894   1.109       .  S
C2890      H2895   1.110       .  S
C2890      H2896   1.111       .  S
C2897      C2898   1.413       .  A
C2897      C2902   1.424       .  A
C2897      H2904   1.084       .  S
C2898      C2899   1.426       .  A
C2899      C2900   1.392       .  A
C2899      C2906   1.510       .  S
C2900      C2901   1.399       .  A
C2900      H2905   1.085       .  S
C2901      C2902   1.418       .  A
C2902      C2903   1.503       .  S
C2903      H2907   1.110       .  S
C2903      H2908   1.110       .  S
C2903      H2909   1.111       .  S
C2906      H2910   1.110       .  S
C2906      H2911   1.088       .  S
C2906      H2912   1.111       .  S
C2913      C2914   1.405       .  A
C2913      C2918   1.409       .  A
C2913      H2920   1.084       .  S
C2914      C2915   1.435       .  A
C2915      C2916   1.408       .  A
C2915      C2922   1.512       .  S
C2916      C2917   1.396       .  A
C2916      H2921   1.085       .  S
C2917      C2918   1.418       .  A
C2918      C2919   1.508       .  S
C2919      H2923   1.111       .  S
C2919      H2924   1.108       .  S
C2919      H2925   1.110       .  S
C2922      H2926   1.110       .  S
C2922      H2927   1.109       .  S
C2922      H2928   1.111       .  S
C2929      C2930   1.408       .  A
C2929      C2934   1.414       .  A
C2929      H2936   1.083       .  S
C2930      C2931   1.436       .  A
C2931      C2932   1.392       .  A
C2931      C2938   1.519       .  S
C2932      C2933   1.391       .  A
C2932      H2937   1.086       .  S
C2933      C2934   1.410       .  A
C2934      C2935   1.502       .  S
C2935      H2939   1.110       .  S
C2935      H2940   1.110       .  S
C2935      H2941   1.111       .  S
C2938      H2942   1.102       .  S
C2938      H2943   1.110       .  S
C2938      H2944   1.111       .  S
C2945      C2946   1.419       .  A
C2945      C2950   1.412       .  A
C2945      H2952   1.083       .  S
C2946      C2947   1.420       .  A
C2947      C2948   1.414       .  A
C2947      C2954   1.507       .  S
C2948      C2949   1.410       .  A
C2948      H2953   1.084       .  S
C2949      C2950   1.409       .  A
C2950      C2951   1.506       .  S
C2951      H2955   1.111       .  S
C2951      H2956   1.110       .  S
C2951      H2957   1.110       .  S
C2954      H2958   1.110       .  S
C2954      H2959   1.109       .  S
C2954      H2960   1.111       .  S
C2961      C2962   1.414       .  A
C2961      C2966   1.425       .  A
C2961      H2968   1.083       .  S
C2962      C2963   1.425       .  A
C2963      C2964   1.391       .  A
C2963      C2970   1.515       .  S
C2964      C2965   1.400       .  A
C2964      H2969   1.084       .  S
C2965      C2966   1.418       .  A
C2966      C2967   1.502       .  S
C2967      H2971   1.111       .  S
C2967      H2972   1.110       .  S
C2967      H2973   1.110       .  S
C2970      H2974   1.103       .  S
C2970      H2975   1.103       .  S
C2970      H2976   1.111       .  S
C2977      C2978   1.406       .  A
C2977      C2982   1.410       .  A
C2977      H2984   1.084       .  S
C2978      C2979   1.434       .  A
C2979      C2980   1.407       .  A
C2979      C2986   1.511       .  S
C2980      C2981   1.396       .  A
C2980      H2985   1.084       .  S
C2981      C2982   1.419       .  A
C2982      C2983   1.508       .  S
C2983      H2987   1.111       .  S
C2983      H2988   1.108       .  S
C2983      H2989   1.110       .  S
C2986      H2990   1.110       .  S
C2986      H2991   1.108       .  S
C2986      H2992   1.111       .  S
C2993      C2994   1.406       .  A
C2993      C2998   1.413       .  A
C2993      H3000   1.084       .  S
C2994      C2995   1.433       .  A
C2995      C2996   1.394       .  A
C2995      C3002   1.516       .  S
C2996      C2997   1.393       .  A
C2996      H3001   1.085       .  S
C2997      C2998   1.415       .  A
C2998      C2999   1.503       .  S
C2999      H3003   1.111       .  S
C2999      H3004   1.107       .  S
C2999      H3005   1.110       .  S
C3002      H3006   1.109       .  S
C3002      H3007   1.110       .  S
C3002      H3008   1.111       .  S
C3009      C3010   1.416       .  A
C3009      C3014   1.409       .  A
C3009      H3016   1.083       .  S
C3010      C3011   1.421       .  A
C3011      C3012   1.405       .  A
C3011      C3018   1.508       .  S
C3012      C3013   1.405       .  A
C3012      H3017   1.085       .  S
C3013      C3014   1.407       .  A
C3014      C3015   1.506       .  S
C3015      H3019   1.111       .  S
C3015      H3020   1.110       .  S
C3015      H3021   1.111       .  S
C3018      H3022   1.107       .  S
C3018      H3023   1.110       .  S
C3018      H3024   1.111       .  S
C3025      C3026   1.411       .  A
C3025      C3030   1.399       .  A
C3025      H3032   1.084       .  S
C3026      C3027   1.419       .  A
C3027      C3028   1.413       .  A
C3027      C3034   1.504       .  S
C3028      C3029   1.404       .  A
C3028      H3033   1.084       .  S
C3029      C3030   1.406       .  A
C3030      C3031   1.509       .  S
C3031      H3035   1.111       .  S
C3031      H3036   1.110       .  S
C3031      H3037   1.110       .  S
C3034      H3038   1.107       .  S
C3034      H3039   1.110       .  S
C3034      H3040   1.111       .  S
C3041      C3042   1.413       .  A
C3041      C3046   1.407       .  A
C3041      H3048   1.081       .  S
C3042      C3043   1.421       .  A
C3043      C3044   1.406       .  A
C3043      C3050   1.510       .  S
C3044      C3045   1.407       .  A
C3044      H3049   1.084       .  S
C3045      C3046   1.412       .  A
C3046      C3047   1.507       .  S
C3047      H3051   1.110       .  S
C3047      H3052   1.110       .  S
C3047      H3053   1.110       .  S
C3050      H3054   1.109       .  S
C3050      H3055   1.110       .  S
C3050      H3056   1.111       .  S
C3057      C3058   1.408       .  A
C3057      C3062   1.401       .  A
C3057      H3064   1.083       .  S
C3058      C3059   1.420       .  A
C3059      C3060   1.407       .  A
C3059      C3066   1.506       .  S
C3060      C3061   1.400       .  A
C3060      H3065   1.084       .  S
C3061      C3062   1.408       .  A
C3062      C3063   1.508       .  S
C3063      H3067   1.110       .  S
C3063      H3068   1.110       .  S
C3063      H3069   1.111       .  S
C3066      H3070   1.110       .  S
C3066      H3071   1.110       .  S
C3066      H3072   1.111       .  S
C3073      C3074   1.408       .  A
C3073      C3078   1.414       .  A
C3073      H3080   1.084       .  S
C3074      C3075   1.424       .  A
C3075      C3076   1.409       .  A
C3075      C3082   1.509       .  S
C3076      C3077   1.399       .  A
C3076      H3081   1.084       .  S
C3077      C3078   1.416       .  A
C3078      C3079   1.506       .  S
C3079      H3083   1.111       .  S
C3079      H3084   1.110       .  S
C3079      H3085   1.111       .  S
C3082      H3086   1.110       .  S
C3082      H3087   1.108       .  S
C3082      H3088   1.111       .  S
C3089      C3090   1.410       .  A
C3089      C3094   1.399       .  A
C3089      H3096   1.083       .  S
C3090      C3091   1.422       .  A
C3091      C3092   1.420       .  A
C3091      C3098   1.505       .  S
C3092      C3093   1.407       .  A
C3092      H3097   1.084       .  S
C3093      C3094   1.410       .  A
C3094      C3095   1.510       .  S
C3095      H3099   1.111       .  S
C3095      H3100   1.109       .  S
C3095      H3101   1.110       .  S
C3098      H3102   1.109       .  S
C3098      H3103   1.109       .  S
C3098      H3104   1.111       .  S
C3105      C3106   1.405       .  A
C3105      C3110   1.410       .  A
C3105      H3112   1.084       .  S
C3106      C3107   1.427       .  A
C3107      C3108   1.407       .  A
C3107      C3114   1.510       .  S
C3108      C3109   1.398       .  A
C3108      H3113   1.084       .  S
C3109      C3110   1.416       .  A
C3110      C3111   1.507       .  S
C3111      H3115   1.111       .  S
C3111      H3116   1.109       .  S
C3111      H3117   1.110       .  S
C3114      H3118   1.111       .  S
C3114      H3119   1.109       .  S
C3114      H3120   1.111       .  S
C3121      C3122   1.408       .  A
C3121      C3126   1.396       .  A
C3121      H3128   1.083       .  S
C3122      C3123   1.420       .  A
C3123      C3124   1.411       .  A
C3123      C3130   1.504       .  S
C3124      C3125   1.401       .  A
C3124      H3129   1.084       .  S
C3125      C3126   1.410       .  A
C3126      C3127   1.511       .  S
C3127      H3131   1.111       .  S
C3127      H3132   1.109       .  S
C3127      H3133   1.110       .  S
C3130      H3134   1.110       .  S
C3130      H3135   1.109       .  S
C3130      H3136   1.111       .  S
C3137      C3138   1.421       .  A
C3137      C3142   1.413       .  A
C3137      H3144   1.083       .  S
C3138      C3139   1.418       .  A
C3139      C3140   1.416       .  A
C3139      C3146   1.506       .  S
C3140      C3141   1.412       .  A
C3140      H3145   1.084       .  S
C3141      C3142   1.410       .  A
C3142      C3143   1.506       .  S
C3143      H3147   1.111       .  S
C3143      H3148   1.108       .  S
C3143      H3149   1.111       .  S
C3146      H3150   1.109       .  S
C3146      H3151   1.110       .  S
C3146      H3152   1.110       .  S
C3153      C3154   1.409       .  A
C3153      C3158   1.402       .  A
C3153      H3160   1.082       .  S
C3154      C3155   1.418       .  A
C3155      C3156   1.417       .  A
C3155      C3162   1.506       .  S
C3156      C3157   1.409       .  A
C3156      H3161   1.084       .  S
C3157      C3158   1.408       .  A
C3158      C3159   1.508       .  S
C3159      H3163   1.111       .  S
C3159      H3164   1.110       .  S
C3159      H3165   1.108       .  S
C3162      H3166   1.110       .  S
C3162      H3167   1.110       .  S
C3162      H3168   1.111       .  S
C3169      C3170   1.414       .  A
C3169      C3174   1.400       .  A
C3169      H3176   1.083       .  S
C3170      C3171   1.417       .  A
C3171      C3172   1.410       .  A
C3171      C3178   1.508       .  S
C3172      C3173   1.407       .  A
C3172      H3177   1.084       .  S
C3173      C3174   1.405       .  A
C3174      C3175   1.507       .  S
C3175      H3179   1.109       .  S
C3175      H3180   1.110       .  S
C3175      H3181   1.110       .  S
C3178      H3182   1.111       .  S
C3178      H3183   1.110       .  S
C3178      H3184   1.111       .  S
C3185      C3186   1.390       .  A
C3185      C3190   1.394       .  A
C3185      H3192   1.086       .  S
C3186      C3187   1.411       .  A
C3187      C3188   1.411       .  A
C3187      C3194   1.504       .  S
C3188      C3189   1.406       .  A
C3188      H3193   1.083       .  S
C3189      C3190   1.435       .  A
C3190      C3191   1.517       .  S
C3191      H3195   1.111       .  S
C3191      H3196   1.107       .  S
C3191      H3197   1.111       .  S
C3194      H3198   1.109       .  S
C3194      H3199   1.110       .  S
C3194      H3200   1.111       .  S
C3201      C3202   1.402       .  A
C3201      C3206   1.412       .  A
C3201      H3208   1.082       .  S
C3202      C3203   1.410       .  A
C3203      C3204   1.407       .  A
C3203      C3210   1.507       .  S
C3204      C3205   1.409       .  A
C3204      H3209   1.084       .  S
C3205      C3206   1.422       .  A
C3206      C3207   1.505       .  S
C3207      H3211   1.107       .  S
C3207      H3212   1.110       .  S
C3207      H3213   1.110       .  S
C3210      H3214   1.110       .  S
C3210      H3215   1.111       .  S
C3210      H3216   1.110       .  S
C3217      C3218   1.402       .  A
C3217      C3222   1.399       .  A
C3217      H3224   1.084       .  S
C3218      C3219   1.419       .  A
C3219      C3220   1.423       .  A
C3219      C3226   1.504       .  S
C3220      C3221   1.412       .  A
C3220      H3225   1.083       .  S
C3221      C3222   1.423       .  A
C3222      C3223   1.511       .  S
C3223      H3227   1.111       .  S
C3223      H3228   1.098       .  S
C3223      H3229   1.103       .  S
C3226      H3230   1.107       .  S
C3226      H3231   1.110       .  S
C3226      H3232   1.111       .  S
C3233      C3234   1.412       .  A
C3233      C3238   1.402       .  A
C3233      H3240   1.083       .  S
C3234      C3235   1.420       .  A
C3235      C3236   1.409       .  A
C3235      C3242   1.509       .  S
C3236      C3237   1.409       .  A
C3236      H3241   1.084       .  S
C3237      C3238   1.409       .  A
C3238      C3239   1.504       .  S
C3239      H3243   1.111       .  S
C3239      H3244   1.107       .  S
C3239      H3245   1.110       .  S
C3242      H3246   1.110       .  S
C3242      H3247   1.110       .  S
C3242      H3248   1.111       .  S
C3249      C3250   1.405       .  A
C3249      C3254   1.398       .  A
C3249      H3256   1.083       .  S
C3250      C3251   1.423       .  A
C3251      C3252   1.424       .  A
C3251      C3258   1.505       .  S
C3252      C3253   1.411       .  A
C3252      H3257   1.084       .  S
C3253      C3254   1.419       .  A
C3254      C3255   1.506       .  S
C3255      H3259   1.111       .  S
C3255      H3260   1.103       .  S
C3255      H3261   1.106       .  S
C3258      H3262   1.109       .  S
C3258      H3263   1.110       .  S
C3258      H3264   1.111       .  S
C3265      C3266   1.406       .  A
C3265      C3270   1.406       .  A
C3265      H3272   1.082       .  S
C3266      C3267   1.431       .  A
C3267      C3268   1.407       .  A
C3267      C3274   1.511       .  S
C3268      C3269   1.397       .  A
C3268      H3273   1.085       .  S
C3269      C3270   1.414       .  A
C3270      C3271   1.508       .  S
C3271      H3275   1.111       .  S
C3271      H3276   1.109       .  S
C3271      H3277   1.110       .  S
C3274      H3278   1.110       .  S
C3274      H3279   1.109       .  S
C3274      H3280   1.111       .  S
C3281      C3282   1.410       .  A
C3281      C3286   1.418       .  A
C3281      H3288   1.083       .  S
C3282      C3283   1.429       .  A
C3283      C3284   1.392       .  A
C3283      C3290   1.515       .  S
C3284      C3285   1.396       .  A
C3284      H3289   1.085       .  S
C3285      C3286   1.413       .  A
C3286      C3287   1.502       .  S
C3287      H3291   1.111       .  S
C3287      H3292   1.110       .  S
C3287      H3293   1.110       .  S
C3290      H3294   1.106       .  S
C3290      H3295   1.107       .  S
C3290      H3296   1.111       .  S
C3297      C3298   1.395       .  A
C3297      C3302   1.404       .  A
C3297      H3304   1.085       .  S
C3298      C3299   1.418       .  A
C3299      C3300   1.409       .  A
C3299      C3306   1.508       .  S
C3300      C3301   1.406       .  A
C3300      H3305   1.083       .  S
C3301      C3302   1.433       .  A
C3302      C3303   1.511       .  S
C3303      H3307   1.111       .  S
C3303      H3308   1.109       .  S
C3303      H3309   1.106       .  S
C3306      H3310   1.108       .  S
C3306      H3311   1.110       .  S
C3306      H3312   1.111       .  S
C3313      C3314   1.411       .  A
C3313      C3318   1.420       .  A
C3313      H3320   1.084       .  S
C3314      C3315   1.424       .  A
C3315      C3316   1.395       .  A
C3315      C3322   1.512       .  S
C3316      C3317   1.399       .  A
C3316      H3321   1.084       .  S
C3317      C3318   1.417       .  A
C3318      C3319   1.504       .  S
C3319      H3323   1.111       .  S
C3319      H3324   1.109       .  S
C3319      H3325   1.110       .  S
C3322      H3326   1.099       .  S
C3322      H3327   1.100       .  S
C3322      H3328   1.111       .  S
C3329      C3330   1.413       .  A
C3329      C3334   1.406       .  A
C3329      H3336   1.083       .  S
C3330      C3331   1.418       .  A
C3331      C3332   1.405       .  A
C3331      C3338   1.506       .  S
C3332      C3333   1.404       .  A
C3332      H3337   1.085       .  S
C3333      C3334   1.408       .  A
C3334      C3335   1.504       .  S
C3335      H3339   1.111       .  S
C3335      H3340   1.109       .  S
C3335      H3341   1.110       .  S
C3338      H3342   1.111       .  S
C3338      H3343   1.108       .  S
C3338      H3344   1.110       .  S
C3345      C3346   1.410       .  A
C3345      C3350   1.401       .  A
C3345      H3352   1.082       .  S
C3346      C3347   1.416       .  A
C3347      C3348   1.416       .  A
C3347      C3354   1.505       .  S
C3348      C3349   1.408       .  A
C3348      H3353   1.084       .  S
C3349      C3350   1.407       .  A
C3350      C3351   1.508       .  S
C3351      H3355   1.111       .  S
C3351      H3356   1.110       .  S
C3351      H3357   1.110       .  S
C3354      H3358   1.110       .  S
C3354      H3359   1.110       .  S
C3354      H3360   1.111       .  S
C3361      C3362   1.414       .  A
C3361      C3366   1.404       .  A
C3361      H3368   1.084       .  S
C3362      C3363   1.418       .  A
C3363      C3364   1.410       .  A
C3363      C3370   1.505       .  S
C3364      C3365   1.405       .  A
C3364      H3369   1.084       .  S
C3365      C3366   1.408       .  A
C3366      C3367   1.508       .  S
C3367      H3371   1.111       .  S
C3367      H3372   1.111       .  S
C3367      H3373   1.109       .  S
C3370      H3374   1.111       .  S
C3370      H3375   1.105       .  S
C3370      H3376   1.111       .  S
