geometry optimzed in LAMMPS
_audit_creation_date              2020-11-30 
_audit_creation_method            'lammps2cif' 
_symmetry_space_group_name_H-M    'P1' 
_symmetry_Int_Tables_number       1 
_symmetry_cell_setting            triclinic 
loop_ 
_symmetry_equiv_pos_as_xyz 
  x,y,z 
_cell_length_a                    37.02313515 
_cell_length_b                    37.117085622817086 
_cell_length_c                    94.76197931136029 
_cell_angle_alpha                 89.70872369537679 
_cell_angle_beta                  90.61696300711463 
_cell_angle_gamma                 120.4533504202467 
loop_ 
_atom_site_label 
_atom_site_type_symbol 
_atom_site_fract_x 
_atom_site_fract_y 
_atom_site_fract_z 
_atom_site_charge 
N1          N  0.68094219  0.04170235  0.73008433    -0.03100
C2          C  0.67689202  0.05650961  0.74293245    -0.00500
C3          C  0.64560826  0.02468496  0.75074573    -0.23400
C4          C  0.62782859  0.98993439  0.74255711    -0.23600
C5          C  0.64970986  0.00024086  0.73007043    -0.00600
H6          H  0.63394500  0.02770518  0.76084075     0.13100
H7          H  0.60023662  0.96047953  0.74519264     0.13200
N8          N  0.91148844  0.16535886  0.65693015    -0.03100
C9          C  0.91229872  0.15158370  0.64358365    -0.00500
C10         C  0.93615015  0.18500118  0.63478223    -0.23400
C11         C  0.95173922  0.22035717  0.64273211    -0.23600
C12         C  0.93656526  0.20810406  0.65621236    -0.00600
H13         H  0.94484020  0.18342054  0.62402870     0.13100
H14         H  0.97400027  0.25173019  0.63926855     0.13200
N15         N  0.54076921  0.82601019  0.83100887    -0.03100
C16         C  0.50768246  0.79974350  0.82255585    -0.00500
C17         C  0.47697323  0.81045579  0.82278522    -0.23400
C18         C  0.49203765  0.84562400  0.83078571    -0.23600
C19         C  0.53084333  0.85467956  0.83587450    -0.00600
H20         H  0.44922699  0.79764753  0.81613205     0.13100
H21         H  0.47738438  0.86430710  0.83196151     0.13200
N22         N  0.69234613  0.72318410  0.89239278    -0.03100
C23         C  0.71346988  0.74098369  0.90469504    -0.00500
C24         C  0.71329258  0.71120320  0.91355453    -0.23400
C25         C  0.69313991  0.67419564  0.90657423    -0.23600
C26         C  0.67994974  0.68167544  0.89379596    -0.00600
H27         H  0.72917878  0.71663557  0.92365742     0.13100
H28         H  0.68978024  0.64496733  0.91021725     0.13200
N29         N  0.92608711  0.52091642  0.48442765    -0.03100
C30         C  0.92620972  0.55764880  0.48622015    -0.00500
C31         C  0.91399522  0.56897785  0.47399427    -0.23400
C32         C  0.90390261  0.53808407  0.46450139    -0.23600
C33         C  0.91217569  0.50924368  0.47077016    -0.00600
H34         H  0.90994899  0.59567628  0.47251299     0.13100
H35         H  0.89110177  0.53646339  0.45404156     0.13200
N36         N  0.07925898  0.41803243  0.54596293    -0.03100
C37         C  0.11150016  0.44334947  0.55502488    -0.00500
C38         C  0.14150019  0.43161623  0.55527992    -0.23400
C39         C  0.12838556  0.39885621  0.54626294    -0.23600
C40         C  0.08997578  0.39020800  0.54097027    -0.00600
H41         H  0.16870311  0.44364251  0.56215969     0.13100
H42         H  0.14268077  0.37982159  0.54510066     0.13200
N43         N  0.61128476  0.50423926  0.99691956    -0.03100
C44         C  0.62180088  0.49173663  0.98485372    -0.00500
C45         C  0.66350945  0.51787951  0.98168175    -0.23400
C46         C  0.67963829  0.54820283  0.99170663    -0.23600
C47         C  0.64764148  0.53953001  0.00092841    -0.00600
H48         H  0.67989373  0.51609453  0.97255771     0.13100
H49         H  0.71103099  0.57501475  0.99189211     0.13200
N50         N  0.36465036  0.37050979  0.06215014    -0.03100
C51         C  0.36326558  0.37519938  0.07639625    -0.00500
C52         C  0.33722103  0.33682367  0.08261829    -0.23400
C53         C  0.32024427  0.30798335  0.07200216    -0.23600
C54         C  0.33700992  0.32919430  0.05958275    -0.00600
H55         H  0.32730168  0.33140949  0.09351098     0.13100
H56         H  0.29560128  0.27572003  0.07309657     0.13200
N57         N  0.00644972  0.74127537  0.38087868    -0.03100
C58         C  0.99568652  0.76022810  0.39112595    -0.00500
C59         C  0.95284014  0.74302762  0.39166023    -0.23400
C60         C  0.93575585  0.71146224  0.38216420    -0.23600
C61         C  0.96838420  0.71071232  0.37550275    -0.00600
H62         H  0.93564847  0.75022712  0.39921330     0.13100
H63         H  0.90255683  0.68974946  0.38072075     0.13200
N64         N  0.27470623  0.82179409  0.32822852    -0.03100
C65         C  0.28032604  0.79262070  0.32119512    -0.00500
C66         C  0.31385108  0.79101420  0.32722173    -0.23400
C67         C  0.33383068  0.82433921  0.33615470    -0.23600
C68         C  0.31046776  0.84364563  0.33608163    -0.00600
H69         H  0.32655945  0.77201894  0.32369552     0.13100
H70         H  0.36455707  0.83604072  0.34085526     0.13200
N71         N  0.23240035  0.16555176  0.16074809    -0.03100
C72         C  0.20212455  0.14589489  0.15056054    -0.00500
C73         C  0.17504182  0.16121937  0.15036055    -0.23400
C74         C  0.18898932  0.19184392  0.16033061    -0.23600
C75         C  0.22402729  0.19433791  0.16659058    -0.00600
H76         H  0.14986188  0.15335104  0.14285352     0.13100
H77         H  0.17668225  0.21236467  0.16214078     0.13200
N78         N  0.40520462  0.06835646  0.21427640    -0.03100
C79         C  0.43796642  0.09071702  0.22354533    -0.00500
C80         C  0.46158375  0.07162066  0.22513362    -0.23400
C81         C  0.44460406  0.03773448  0.21653481    -0.23600
C82         C  0.40964761  0.03538426  0.21031941    -0.00600
H83         H  0.48770480  0.08054050  0.23231805     0.13100
H84         H  0.45420471  0.01465876  0.21594473     0.13200
N85         N  0.09654046  0.65591821  0.82938340    -0.03100
C86         C  0.12616850  0.65435967  0.82115313    -0.00500
C87         C  0.11947180  0.61415690  0.82100269    -0.23400
C88         C  0.08484076  0.58989898  0.82894344    -0.23600
C89         C  0.07105753  0.61571876  0.83383322    -0.00600
H90         H  0.13553504  0.60278627  0.81453641     0.13100
H91         H  0.06916370  0.55626541  0.83004240     0.13200
N92         N  0.17002511  0.92305442  0.87976702    -0.03100
C93         C  0.14379932  0.93578105  0.88493918    -0.00500
C94         C  0.15425906  0.97433472  0.87926061    -0.23400
C95         C  0.19047660  0.98814726  0.87185430    -0.23600
C96         C  0.20023002  0.95692252  0.87254049    -0.00600
H97         H  0.14098712  0.99337336  0.88213933     0.13100
H98         H  0.20978775  0.01921907  0.86757425     0.13200
N99         N  0.75020859  0.69920582  0.66067214    -0.03100
C100        C  0.77006419  0.73291950  0.65169464    -0.00500
C101        C  0.75038843  0.75615481  0.65175729    -0.23400
C102        C  0.71823090  0.73769755  0.66094830    -0.23600
C103        C  0.71737254  0.70227177  0.66586638    -0.00600
H104        H  0.75695704  0.78236686  0.64500834     0.13100
H105        H  0.69454593  0.74617830  0.66251072     0.13200
N106        N  0.85444027  0.54444215  0.72100114    -0.03100
C107        C  0.82983297  0.51095670  0.72954249    -0.00500
C108        C  0.84414487  0.48316382  0.72984163    -0.23400
C109        C  0.87877902  0.49950303  0.72153834    -0.23600
C110        C  0.88562836  0.53750742  0.71648367    -0.00600
H111        H  0.83245360  0.45546526  0.73634357     0.13100
H112        H  0.89958094  0.48715987  0.72051511     0.13200
N113        N  0.44324605  0.31952247  0.49979845    -0.03100
C114        C  0.47229532  0.31464122  0.49260778    -0.00500
C115        C  0.47130175  0.27840134  0.49657979    -0.23400
C116        C  0.43861188  0.25821749  0.50564847    -0.23600
C117        C  0.41902060  0.28161936  0.50635262    -0.00600
H118        H  0.48894590  0.26549219  0.49198191     0.13100
H119        H  0.42608357  0.22641688  0.50930181     0.13200
N120        N  0.52007923  0.57908932  0.55697064    -0.03100
C121        C  0.49601802  0.58456237  0.56675699    -0.00500
C122        C  0.51528285  0.62600961  0.57088906    -0.23400
C123        C  0.55086372  0.64737997  0.56336605    -0.23600
C124        C  0.55418173  0.61848194  0.55528615    -0.00600
H125        H  0.50450198  0.63938588  0.57875791     0.13100
H126        H  0.57359862  0.68039648  0.56433225     0.13200
N127        N  0.42089090  0.03180778  0.99675095    -0.03100
C128        C  0.44583960  0.06387180  0.98779989    -0.00500
C129        C  0.43233401  0.09233015  0.98696442    -0.23400
C130        C  0.39822136  0.07792092  0.99547980    -0.23600
C131        C  0.39129935  0.04070817  0.00124338    -0.00600
H132        H  0.44407744  0.11903153  0.97998098     0.13100
H133        H  0.37802439  0.09101980  0.99631336     0.13200
N134        N  0.53638617  0.88718637  0.05640013    -0.03100
C135        C  0.57234177  0.88689013  0.05336978    -0.00500
C136        C  0.58578370  0.87336744  0.06477531    -0.23400
C137        C  0.55726028  0.86352631  0.07510867    -0.23600
C138        C  0.52763776  0.87252353  0.07000291    -0.00600
H139        H  0.61300347  0.86973825  0.06529863     0.13100
H140        H  0.55747724  0.85018789  0.08527592     0.13200
N141        N  0.17305708  0.17984334  0.38151039    -0.03100
C142        C  0.14685477  0.14986836  0.39095735    -0.00500
C143        C  0.15594157  0.11810101  0.39177898    -0.23400
C144        C  0.18833451  0.12813520  0.38285266    -0.23600
C145        C  0.19911410  0.16624966  0.37689752    -0.00600
H146        H  0.14267943  0.09199228  0.39903897     0.13100
H147        H  0.20556383  0.11182246  0.38206251     0.13200
N148        N  0.08742527  0.35929196  0.32690052    -0.03100
C149        C  0.10427015  0.38744501  0.31606255    -0.00500
C150        C  0.08665234  0.41247162  0.31536740    -0.23400
C151        C  0.05747063  0.39941831  0.32572490    -0.23600
C152        C  0.05825102  0.36707768  0.33270925    -0.00600
H153        H  0.09243109  0.43587144  0.30744401     0.13100
H154        H  0.03611300  0.41076312  0.32749922     0.13200
N155        N  0.87319454  0.22362586  0.22967751    -0.03100
C156        C  0.85434306  0.21640168  0.24252664    -0.00500
C157        C  0.88389196  0.23034125  0.25324813    -0.23400
C158        C  0.92226924  0.24767271  0.24696922    -0.23600
C159        C  0.91533670  0.24506493  0.23252643    -0.00600
H160        H  0.87835994  0.23178619  0.26436871     0.13100
H161        H  0.95221350  0.26542018  0.25232987     0.13200
N162        N  0.75981885  0.98309055  0.16217377    -0.03100
C163        C  0.78368487  0.97546095  0.15294483    -0.00500
C164        C  0.76623923  0.93303799  0.15076375    -0.23400
C165        C  0.73124779  0.91335473  0.15877777    -0.23600
C166        C  0.72742502  0.94407316  0.16551152    -0.00600
H167        H  0.77681860  0.91802754  0.14347363     0.13100
H168        H  0.70914135  0.88005942  0.15898597     0.13200
N169        N  0.60119651  0.67007683  0.31211323    -0.03100
C170        C  0.59145001  0.67793941  0.29892466    -0.00500
C171        C  0.60854546  0.66488576  0.28870489    -0.23400
C172        C  0.62862312  0.64741235  0.29562843    -0.23600
C173        C  0.62199695  0.64876791  0.30993064    -0.00600
H174        H  0.60339551  0.66436780  0.27742369     0.13100
H175        H  0.64168217  0.63037209  0.29067642     0.13200
N176        N  0.72850735  0.90944385  0.38055944    -0.03100
C177        C  0.76092610  0.91535535  0.38938049    -0.00500
C178        C  0.79346525  0.95626343  0.38867463    -0.23400
C179        C  0.78122803  0.97679354  0.37959501    -0.23600
C180        C  0.74116222  0.94827076  0.37503082    -0.00600
H181        H  0.82158004  0.97061609  0.39515748     0.13100
H182        H  0.79773131  0.01021928  0.37784068     0.13200
N183        N  0.36103221  0.23198488  0.72517275    -0.03100
C184        C  0.38140278  0.23862196  0.73790971    -0.00500
C185        C  0.37836415  0.26836104  0.74567029    -0.23400
C186        C  0.35689827  0.28178820  0.73759093    -0.23600
C187        C  0.34620513  0.25925244  0.72518002    -0.00600
H188        H  0.39293940  0.28105183  0.75581120     0.13100
H189        H  0.35120897  0.30681774  0.74022445     0.13200
N190        N  0.27387748  0.00651841  0.65107813    -0.03100
C191        C  0.26129721  0.00746570  0.63740988    -0.00500
C192        C  0.26399677  0.97826153  0.62919065    -0.23400
C193        C  0.27904268  0.95900938  0.63754808    -0.23600
C194        C  0.28394898  0.97566776  0.65087150    -0.00600
H195        H  0.25378983  0.97016428  0.61832791     0.13100
H196        H  0.28249122  0.93279529  0.63455724     0.13200
N197        N  0.60757222  0.05082660  0.50224777    -0.03100
C198        C  0.60937306  0.08372873  0.49490242    -0.00500
C199        C  0.64304786  0.12110112  0.49948688    -0.23400
C200        C  0.66381888  0.11161646  0.50944782    -0.23600
C201        C  0.64367910  0.06847934  0.51021132    -0.00600
H202        H  0.65400010  0.15170451  0.49494723     0.13100
H203        H  0.69460376  0.13341355  0.51366915     0.13200
N204        N  0.33153475  0.83682915  0.54625481    -0.03100
C205        C  0.32297610  0.80296718  0.55457776    -0.00500
C206        C  0.28135295  0.77235127  0.55330642    -0.23400
C207        C  0.26263162  0.78772217  0.54474260    -0.23600
C208        C  0.29326400  0.82703238  0.54040727    -0.00600
H209        H  0.26513724  0.74405778  0.55952711     0.13100
H210        H  0.22925652  0.77295048  0.54277942     0.13200
N211        N  0.69787277  0.57128371  0.22461134    -0.03100
C212        C  0.70522073  0.56437508  0.23838031    -0.00500
C213        C  0.68533123  0.57751435  0.24752525    -0.23400
C214        C  0.66470640  0.59219537  0.23951401    -0.23600
C215        C  0.67194274  0.58741974  0.22559530    -0.00600
H216        H  0.68286762  0.57319412  0.25885510     0.13100
H217        H  0.64284548  0.60100778  0.24337864     0.13200
N218        N  0.90390788  0.64122037  0.14552862    -0.03100
C219        C  0.89906193  0.64628488  0.13144293    -0.00500
C220        C  0.91227284  0.62395794  0.12349737    -0.23400
C221        C  0.92888859  0.60752873  0.13268204    -0.23600
C222        C  0.92422249  0.61894197  0.14607255    -0.00600
H223        H  0.91531358  0.62485665  0.11213255     0.13100
H224        H  0.94612595  0.59229446  0.12982184     0.13200
N225        N  0.89361926  0.32962623  0.99801738    -0.03100
C226        C  0.85970668  0.32239761  0.98985066    -0.00500
C227        C  0.82866570  0.28083641  0.99054111    -0.23400
C228        C  0.84302596  0.26148658  0.99928912    -0.23600
C229        C  0.88291584  0.29140953  0.00353866    -0.00600
H230        H  0.79975203  0.26559074  0.98448051     0.13100
H231        H  0.82789283  0.22815257  0.00112602     0.13200
N232        N  0.07480075  0.60501949  0.04772627    -0.03100
C233        C  0.10237542  0.61582323  0.05884736    -0.00500
C234        C  0.12300824  0.65827209  0.06130806    -0.23400
C235        C  0.10702464  0.67461435  0.05204420    -0.23600
C236        C  0.07818285  0.64219175  0.04363064    -0.00600
H237        H  0.14533284  0.67510937  0.06969485     0.13100
H238        H  0.11485910  0.70694699  0.05170149     0.13200
N239        N  0.26345848  0.33399465  0.82428599    -0.03100
C240        C  0.26505992  0.34228567  0.81003627    -0.00500
C241        C  0.29677248  0.33851317  0.80394008    -0.23400
C242        C  0.31464724  0.32695261  0.81431761    -0.23600
C243        C  0.29454089  0.32513004  0.82672055    -0.00600
H244        H  0.30734589  0.34565698  0.79314011     0.13100
H245        H  0.34246530  0.32459243  0.81324808     0.13200
N246        N  0.00160877  0.19030210  0.88238000    -0.03100
C247        C  0.98602289  0.15003764  0.88687053    -0.00500
C248        C  0.94590288  0.12511006  0.88143783    -0.23400
C249        C  0.93418623  0.15141082  0.87544259    -0.23600
C250        C  0.96850444  0.19121026  0.87644472    -0.00600
H251        H  0.92482987  0.09241518  0.88377261     0.13100
H252        H  0.90279221  0.14302008  0.87215421     0.13200
O253        O  0.63819789  0.21377713  0.82242405    -0.79800
O254        O  0.75568053  0.40558275  0.86941321    -0.81300
O255        O  0.71621970  0.35956968  0.82348149    -0.78400
O256        O  0.76140979  0.29457780  0.85308979    -0.76700
O257        O  0.73416276  0.25154647  0.87231310    -0.78500
O258        O  0.65857930  0.36588950  0.82253561    -0.79500
O259        O  0.77004417  0.38108409  0.84947421    -0.80800
O260        O  0.70490171  0.27054920  0.82278071    -0.81100
Eu261      Eu  0.70981022  0.31331627  0.84335783     2.39200
O262        O  0.70782405  0.31219311  0.86807264    -0.88600
O263        O  0.64099972  0.28597131  0.83471513    -0.92200
C264        C  0.67558860  0.23596888  0.81737533     1.02500
C265        C  0.78042223  0.40833904  0.85935078     1.02300
C266        C  0.69434217  0.37397848  0.81773274     1.02300
C267        C  0.76352360  0.27276469  0.86348723     1.00100
H268        H  0.69972301  0.38385537  0.84787773     0.29900
O269        O  0.68286921  0.35541371  0.85115234    -1.01000
H270        H  0.67877590  0.22813933  0.84806270     0.29900
O271        O  0.66697847  0.24444157  0.85143249    -1.03500
O272        O  0.64208283  0.35793977  0.89615824    -0.80700
O273        O  0.52489473  0.16444928  0.84984486    -0.80300
O274        O  0.63129394  0.39767622  0.84977864    -0.78700
O275        O  0.71469767  0.28679305  0.89559862    -0.82100
O276        O  0.64707973  0.17193824  0.86846246    -0.79900
O277        O  0.57254928  0.29026388  0.82142327    -0.78600
O278        O  0.52393517  0.28222611  0.86973521    -0.80100
O279        O  0.56260711  0.21127371  0.89521770    -0.82000
O280        O  0.54734311  0.32125300  0.84949369    -0.78700
O281        O  0.62056292  0.20476061  0.89654543    -0.81400
O282        O  0.66809142  0.41079227  0.87014460    -0.77200
O283        O  0.55952723  0.22336016  0.82215904    -0.77200
O284        O  0.60680921  0.15878893  0.84892406    -0.76800
O285        O  0.72063199  0.35083356  0.89629571    -0.80300
O286        O  0.57798975  0.29859910  0.89660904    -0.79800
O287        O  0.51130043  0.18917094  0.86987372    -0.78100
Eu288      Eu  0.68189052  0.35452339  0.87596100     2.39800
Eu289      Eu  0.59784523  0.21719203  0.84261475     2.39600
Eu290      Eu  0.61377304  0.32714368  0.84254328     2.38400
Eu291      Eu  0.66615441  0.24331620  0.87639747     2.39900
Eu292      Eu  0.57193202  0.25767706  0.87561761     2.39800
O293        O  0.59772280  0.21568162  0.86746658    -0.92500
O294        O  0.61338395  0.32631639  0.86732055    -0.91400
C295        C  0.60600447  0.33389039  0.90183971     1.02700
C296        C  0.50070636  0.16127311  0.86018098     1.01400
C297        C  0.64944932  0.42060449  0.86068380     1.00800
C298        C  0.72898513  0.32341259  0.90113127     1.02800
C299        C  0.62561416  0.14819937  0.85799541     1.01700
C300        C  0.55613587  0.25303586  0.81629609     1.00600
C301        C  0.52128434  0.30430263  0.85972077     1.00600
C302        C  0.58439355  0.19698850  0.90099490     1.03200
H303        H  0.54211978  0.24681288  0.84727135     0.30600
O304        O  0.57051172  0.25815797  0.85071342    -1.04700
H305        H  0.64045250  0.28525994  0.89464362     0.32700
O306        O  0.64041234  0.28551865  0.88444418    -1.07200
O307        O  0.89631151  0.88808751  0.98536772    -0.79800
O308        O  0.98165671  0.07665662  0.03385089    -0.81300
O309        O  0.86309902  0.97004806  0.01173888    -0.78400
O310        O  0.97876058  0.03495109  0.98625377    -0.76700
O311        O  0.04230479  0.03838046  0.98669223    -0.78500
O312        O  0.84283584  0.92552345  0.03065518    -0.79500
O313        O  0.94497886  0.05729483  0.01299572    -0.80800
O314        O  0.89310418  0.94802889  0.98558304    -0.81100
Eu315      Eu  0.93523037  0.98953574  0.00580757     2.39200
O316        O  0.00360901  0.02565897  0.01504799    -0.88600
O317        O  0.90278122  0.91977818  0.01366289    -0.92200
C318        C  0.88353405  0.91222570  0.98036349     1.02500
C319        C  0.96182943  0.08230765  0.02357043     1.02300
C320        C  0.83634690  0.94656317  0.02111133     1.02300
C321        C  0.01577686  0.04760057  0.98132722     1.00100
H322        H  0.91623575  0.99882323  0.03405626     0.29900
O323        O  0.93213000  0.98656690  0.03069060    -1.01000
H324        H  0.97308601  0.95921713  0.98731840     0.29900
O325        O  0.97273487  0.95844481  0.99750757    -1.03500
O326        O  0.04384210  0.02517041  0.06012393    -0.80700
O327        O  0.95478904  0.83316672  0.01215954    -0.80300
O328        O  0.89657594  0.95667434  0.05835128    -0.78700
O329        O  0.09419502  0.06548904  0.01462116    -0.82100
O330        O  0.04282262  0.95434414  0.98586491    -0.79900
O331        O  0.84837546  0.84557211  0.03193504    -0.78600
O332        O  0.96532116  0.87811269  0.05861507    -0.80100
O333        O  0.08046769  0.94342089  0.03354772    -0.82000
O334        O  0.90130386  0.87374401  0.05831687    -0.78700
O335        O  0.09991514  0.98441586  0.01375655    -0.81400
O336        O  0.95744923  0.01842574  0.06045706    -0.77200
O337        O  0.86896183  0.83254601  0.01106062    -0.77200
O338        O  0.98170804  0.89112680  0.98501856    -0.76800
O339        O  0.06744699  0.08273683  0.03337391    -0.80300
O340        O  0.04779742  0.96565734  0.06005670    -0.79800
O341        O  0.99961885  0.85791559  0.03099817    -0.78100
Eu342      Eu  0.00035044  0.02330657  0.03993812     2.39800
Eu343      Eu  0.93996495  0.88871357  0.00534441     2.39600
Eu344      Eu  0.90121654  0.91694874  0.03848485     2.38400
Eu345      Eu  0.04164982  0.99495601  0.00656284     2.39900
Eu346      Eu  0.00815306  0.92429638  0.03924386     2.39800
O347        O  0.00913233  0.92535831  0.01434567    -0.92500
O348        O  0.96950540  0.95392122  0.04779983    -0.91400
C349        C  0.05666018  0.00129507  0.06532038     1.02700
C350        C  0.97822556  0.82975024  0.02163320     1.01400
C351        C  0.92031609  0.99158657  0.06473069     1.00800
C352        C  0.09624717  0.09077059  0.02432983     1.02800
C353        C  0.01772347  0.91843270  0.98006945     1.01700
C354        C  0.84266304  0.82207350  0.02121901     1.00600
C355        C  0.92796542  0.86428360  0.06336991     1.00600
C356        C  0.10695468  0.96511067  0.02384194     1.03200
H357        H  0.92618074  0.85801866  0.03329270     0.30600
O358        O  0.93936316  0.88670046  0.03017557    -1.04700
H359        H  0.06764310  0.00920102  0.03522109     0.32700
O360        O  0.03941187  0.99373827  0.03147940    -1.07200
O361        O  0.71532007  0.35592075  0.39226265    -0.79800
O362        O  0.63417246  0.16191953  0.34399827    -0.81300
O363        O  0.64378058  0.20867295  0.39330722    -0.78400
O364        O  0.75241119  0.27260049  0.36561433    -0.76700
O365        O  0.76788571  0.31405367  0.34642246    -0.78500
O366        O  0.57969922  0.20347182  0.39421604    -0.79500
O367        O  0.67463726  0.18424325  0.36399982    -0.80800
O368        O  0.72291699  0.29833741  0.39200478    -0.81100
Eu369      Eu  0.68075381  0.25139914  0.37244349     2.39200
O370        O  0.68101338  0.25387436  0.34762471    -0.88600
O371        O  0.64124066  0.28051920  0.38092357    -0.92200
C372        C  0.73078893  0.33393861  0.39708701     1.02500
C373        C  0.65696978  0.15805637  0.35359769     1.02300
C374        C  0.60821644  0.19650956  0.39932748     1.02300
C375        C  0.77771065  0.29516458  0.35583784     1.00100
H376        H  0.60009299  0.18268840  0.36751219     0.29900
O377        O  0.61145132  0.21105376  0.36425352    -1.01000
H378        H  0.73631312  0.33794843  0.36799193     0.29900
O379        O  0.70775037  0.32119983  0.36469928    -1.03500
O380        O  0.57044780  0.21034423  0.31848338    -0.80700
O381        O  0.65071354  0.40373540  0.36532112    -0.80300
O382        O  0.52093114  0.16693475  0.36610334    -0.78700
O383        O  0.71399635  0.28747487  0.31930814    -0.82100
O384        O  0.76156428  0.39363486  0.34760642    -0.79900
O385        O  0.56693628  0.27862179  0.39350353    -0.78600
O386        O  0.52250849  0.28253414  0.34618915    -0.80100
O387        O  0.63658338  0.35377918  0.31949801    -0.82000
O388        O  0.51082536  0.24592778  0.36662704    -0.78700
O389        O  0.70356740  0.36623714  0.32066248    -0.81400
O390        O  0.54441660  0.15221953  0.34583683    -0.77200
O391        O  0.62523625  0.34362419  0.39400764    -0.77200
O392        O  0.73451199  0.41122922  0.36594818    -0.76800
O393        O  0.65647095  0.22148231  0.31885946    -0.80300
O394        O  0.55779091  0.26425569  0.31932001    -0.79800
O395        O  0.60771489  0.37854739  0.34584713    -0.78100
Eu396      Eu  0.61189841  0.21324417  0.33926494     2.39800
Eu397      Eu  0.66755184  0.34980257  0.37301384     2.39600
Eu398      Eu  0.57173325  0.23958120  0.37316549     2.38400
Eu399      Eu  0.70815988  0.32331758  0.33996915     2.39900
Eu400      Eu  0.59683954  0.30879608  0.33980012     2.39800
O401        O  0.66630414  0.34963529  0.34822926    -0.92500
O402        O  0.57099860  0.24013379  0.34819438    -0.91400
C403        C  0.55396741  0.23111702  0.31344373     1.02700
C404        C  0.62932873  0.40732984  0.35508195     1.01400
C405        C  0.51776129  0.14253210  0.35588171     1.00800
C406        C  0.69144975  0.25087530  0.31383886     1.02800
C407        C  0.76368607  0.41975259  0.35693323     1.01700
C408        C  0.59003160  0.31500216  0.39921012     1.00600
C409        C  0.49858432  0.26060156  0.35648294     1.00600
C410        C  0.67462330  0.37132457  0.31488952     1.03200
H411        H  0.58130396  0.32003396  0.36832815     0.30600
O412        O  0.59787455  0.30865643  0.36482714    -1.04700
H413        H  0.63919738  0.28334178  0.32130987     0.32700
O414        O  0.63890938  0.28249740  0.33148910    -1.07200
O415        O  0.42014786  0.72108933  0.68019464    -0.79800
O416        O  0.22383186  0.61064539  0.72671852    -0.81300
O417        O  0.32025340  0.73519660  0.69869646    -0.78400
O418        O  0.37241647  0.68177013  0.72823893    -0.76700
O419        O  0.37725503  0.62269108  0.72873418    -0.78500
O420        O  0.27886795  0.71104517  0.67900735    -0.79500
O421        O  0.28289729  0.67565239  0.72668608    -0.80800
O422        O  0.39948114  0.73782907  0.70043066    -0.81100
Eu423      Eu  0.33049270  0.67861273  0.70745643     2.39200
O424        O  0.29909260  0.60942301  0.71574916    -0.88600
O425        O  0.33161623  0.67719447  0.68259463    -0.92200
C426        C  0.42506330  0.74720019  0.69001804     1.02500
C427        C  0.24680835  0.64784414  0.73173367     1.02300
C428        C  0.30115568  0.74010509  0.68806662     1.02300
C429        C  0.38487073  0.65812144  0.73387336     1.00100
H430        H  0.24617925  0.65301211  0.70148735     0.29900
O431        O  0.26143065  0.63990235  0.69857024    -1.01000
H432        H  0.39829429  0.66427375  0.70327847     0.29900
O433        O  0.36986045  0.64832287  0.69972107    -1.03500
O434        O  0.17576569  0.49806875  0.70075586    -0.80700
O435        O  0.37212825  0.60435783  0.65514690    -0.80300
O436        O  0.19226377  0.62404921  0.67938257    -0.78700
O437        O  0.29585152  0.53501142  0.72773453    -0.82100
O438        O  0.40910431  0.59446622  0.70191840    -0.79900
O439        O  0.30322874  0.67640940  0.65231226    -0.78600
O440        O  0.22624643  0.53581279  0.65403959    -0.80100
O441        O  0.28200725  0.48371229  0.68290336    -0.82000
O442        O  0.21900542  0.59281621  0.65448087    -0.78700
O443        O  0.32827201  0.51048518  0.70126817    -0.81400
O444        O  0.17207662  0.58167743  0.69889166    -0.77200
O445        O  0.36817738  0.68300983  0.65313954    -0.77200
O446        O  0.42861597  0.63633511  0.68231400    -0.76800
O447        O  0.23319901  0.53260010  0.72852330    -0.80300
O448        O  0.19773681  0.48304145  0.68057047    -0.79800
O449        O  0.31402331  0.53924467  0.65611982    -0.78100
Eu450      Eu  0.22943229  0.57051915  0.70725214     2.39800
Eu451      Eu  0.37032147  0.64686347  0.67476828     2.39600
Eu452      Eu  0.26302911  0.63931405  0.67364471     2.38400
Eu453      Eu  0.33808226  0.57902156  0.70810223     2.39900
Eu454      Eu  0.26868104  0.53916397  0.67487469     2.39800
O455        O  0.33822949  0.57796944  0.68333195    -0.92500
O456        O  0.23078181  0.57046977  0.68241850    -0.91400
C457        C  0.17061487  0.47333058  0.69041373     1.02700
C458        C  0.34919652  0.56647499  0.65061322     1.01400
C459        C  0.16576750  0.60228115  0.68904869     1.00800
C460        C  0.26024096  0.52340067  0.73353875     1.02800
C461        C  0.43530632  0.61590568  0.69210595     1.01700
C462        C  0.33991148  0.68862862  0.64715018     1.00600
C463        C  0.21105237  0.55784032  0.64900084     1.00600
C464        C  0.30558328  0.48090820  0.69244496     1.03200
H465        H  0.30074147  0.60651020  0.65597439     0.30600
O466        O  0.30089506  0.60780281  0.66617450    -1.04700
H467        H  0.25523892  0.51170573  0.70323195     0.32700
O468        O  0.26832675  0.53999009  0.69970000    -1.07200
O469        O  0.30936913  0.53723388  0.15286204    -0.79800
O470        O  0.41408864  0.73261325  0.20005141    -0.81300
O471        O  0.38252960  0.68946082  0.15309075    -0.78400
O472        O  0.42592789  0.62299376  0.18139610    -0.76700
O473        O  0.39696782  0.58031084  0.20038547    -0.78500
O474        O  0.32171184  0.69009508  0.15039437    -0.79500
O475        O  0.43398382  0.70909315  0.18121818    -0.80800
O476        O  0.37377312  0.59720608  0.15312742    -0.81100
Eu477      Eu  0.37459983  0.64231943  0.17267335     2.39200
O478        O  0.36960475  0.64295598  0.19737369    -0.88600
O479        O  0.30634718  0.61164643  0.16303903    -0.92200
C480        C  0.34708193  0.56040009  0.14829515     1.02500
C481        C  0.44191872  0.73551249  0.19129331     1.02300
C482        C  0.35939067  0.70139043  0.14672576     1.02300
C483        C  0.42687078  0.59987098  0.19149125     1.00100
H484        H  0.35965617  0.70976444  0.17582697     0.29900
O485        O  0.34289014  0.68131458  0.17911550    -1.01000
H486        H  0.34641010  0.55788435  0.17833974     0.29900
O487        O  0.33336096  0.57364258  0.18103439    -1.03500
O488        O  0.29591518  0.68788685  0.22227265    -0.80700
O489        O  0.19512965  0.48660294  0.17916621    -0.80300
O490        O  0.29073705  0.72157531  0.17485352    -0.78700
O491        O  0.37181627  0.61854075  0.22578403    -0.82100
O492        O  0.31094715  0.50139950  0.19982798    -0.79900
O493        O  0.23889805  0.61080369  0.14813382    -0.78600
O494        O  0.17604629  0.59696611  0.19288739    -0.80100
O495        O  0.22288991  0.53649064  0.22218536    -0.82000
O496        O  0.20355106  0.63910401  0.17360763    -0.78700
O497        O  0.28158465  0.53227237  0.22479947    -0.81400
O498        O  0.33188323  0.74168366  0.19478755    -0.77200
O499        O  0.23244418  0.54617639  0.14888932    -0.77200
O500        O  0.27827729  0.48657321  0.17840798    -0.76800
O501        O  0.37522620  0.68200659  0.22529216    -0.80300
O502        O  0.23117073  0.62853103  0.22197610    -0.79800
O503        O  0.17431257  0.51200967  0.19744274    -0.78100
Eu504      Eu  0.33877639  0.68267224  0.20376192     2.39800
Eu505      Eu  0.26549510  0.54254085  0.17117445     2.39600
Eu506      Eu  0.27430310  0.65002699  0.16955254     2.38400
Eu507      Eu  0.32921242  0.57403943  0.20576995     2.39900
Eu508      Eu  0.23028707  0.58333747  0.20255562     2.39800
O509        O  0.26194884  0.54493180  0.19582107    -0.92500
O510        O  0.27053701  0.65225564  0.19423888    -0.91400
C511        C  0.25848392  0.66478080  0.22702082     1.02700
C512        C  0.16913192  0.48279290  0.18891912     1.01400
C513        C  0.31293592  0.74847665  0.18446228     1.00800
C514        C  0.38400914  0.65547079  0.23072024     1.02800
C515        C  0.29367195  0.47704518  0.18905974     1.01700
C516        C  0.22763160  0.57469007  0.14278400     1.00600
C517        C  0.17354090  0.61804244  0.18240084     1.00600
C518        C  0.24407011  0.52203247  0.22837565     1.03200
H519        H  0.20534385  0.56752741  0.17356226     0.30600
O520        O  0.23315860  0.58077464  0.17767313    -1.04700
H521        H  0.29653598  0.61391735  0.22255035     0.32700
O522        O  0.29823961  0.61363619  0.21238456    -1.07200
O523        O  0.98339292  0.02490387  0.56097380    -0.79800
O524        O  0.85770161  0.83366239  0.51336485    -0.81300
O525        O  0.85916980  0.95533812  0.53315855    -0.78400
O526        O  0.89755592  0.88048557  0.55889836    -0.76700
O527        O  0.94988910  0.86537664  0.55790435    -0.78500
O528        O  0.88577091  0.99616583  0.51346607    -0.79500
O529        O  0.84355183  0.86039252  0.53287186    -0.80800
O530        O  0.91555889  0.97058340  0.56041267    -0.81100
Eu531      Eu  0.90598982  0.92786038  0.53937594     2.39200
O532        O  0.93125008  0.88538182  0.53088582    -0.88600
O533        O  0.95040790  0.99663348  0.53139257    -0.92200
C534        C  0.94622631  0.00345924  0.56620581     1.02500
C535        C  0.83347337  0.83171892  0.52342151     1.02300
C536        C  0.85837132  0.97923937  0.52332132     1.02300
C537        C  0.91598507  0.86085704  0.56330024     1.00100
H538        H  0.87665884  0.91732907  0.51124285     0.29900
O539        O  0.90518253  0.92763714  0.51453939    -1.01000
H540        H  0.97485990  0.95138446  0.55798305     0.29900
O541        O  0.97478084  0.95217994  0.54779893    -1.03500
O542        O  0.96626378  0.87942611  0.48500651    -0.80700
O543        O  0.09195212  0.06963106  0.53195317    -0.80300
O544        O  0.90040133  0.95812808  0.48712846    -0.78700
O545        O  0.97718192  0.83724673  0.53232358    -0.82100
O546        O  0.04292414  0.94755181  0.56053676    -0.79900
O547        O  0.97598807  0.06984585  0.51319719    -0.78600
O548        O  0.05174939  0.02684507  0.48753039    -0.80100
O549        O  0.08987436  0.94933012  0.51287239    -0.82000
O550        O  0.99465189  0.03485209  0.48636621    -0.78700
O551        O  0.06658928  0.91408161  0.53360507    -0.81400
O552        O  0.89075472  0.89249019  0.48613520    -0.77200
O553        O  0.01339377  0.08235665  0.53371518    -0.77200
O554        O  0.06082022  0.01573719  0.55915654    -0.76800
O555        O  0.93570302  0.82282987  0.51260794    -0.80300
O556        O  0.03306805  0.93538637  0.48503087    -0.79800
O557        O  0.10583478  0.04238767  0.51245706    -0.78100
Eu558      Eu  0.92988738  0.88431586  0.50604843     2.39800
Eu559      Eu  0.01927127  0.02085899  0.53969725     2.39600
Eu560      Eu  0.94966739  0.99650786  0.50652995     2.38400
Eu561      Eu  0.99958075  0.90922311  0.53954800     2.39900
Eu562      Eu  0.04269612  0.97696688  0.50639520     2.39800
O563        O  0.04393375  0.97756400  0.53129235    -0.92500
O564        O  0.97401836  0.95304700  0.49800206    -0.91400
C565        C  0.00303182  0.90151352  0.47952159     1.02700
C566        C  0.11594724  0.07073007  0.52192837     1.01400
C567        C  0.88407843  0.92149113  0.48151691     1.00800
C568        C  0.95467768  0.81311084  0.52211857     1.02800
C569        C  0.06291081  0.98561924  0.56517421     1.01700
C570        C  0.99767998  0.09367472  0.52358068     1.00600
C571        C  0.03066512  0.04235109  0.48190033     1.00600
C572        C  0.09274648  0.92808955  0.52329666     1.03200
H573        H  0.03597670  0.04859429  0.51161251     0.30600
O574        O  0.01814300  0.02028876  0.51490484    -1.04700
H575        H  0.00891024  0.89122594  0.51104285     0.32700
O576        O  0.99860830  0.90872552  0.51458438    -1.07200
C577        C  0.02747348  0.07253554  0.96807905     0.01700
C578        C  0.03449867  0.05612075  0.95568597     0.04500
C579        C  0.03499177  0.07368567  0.94243467    -0.11600
C580        C  0.03194699  0.10999742  0.94156408     0.23800
C581        C  0.03189395  0.13026417  0.95414495    -0.12100
C582        C  0.02805266  0.11079638  0.96734079     0.05200
C583        C  0.02153923  0.12234573  0.92773757     0.27600
C584        C  0.05091795  0.13946072  0.91675432    -0.12800
C585        C  0.03817139  0.14433633  0.90310911     0.05700
C586        C  0.99803587  0.13940459  0.90087229    -0.08800
C587        C  0.96915295  0.12418302  0.91231688     0.06500
C588        C  0.98023218  0.11328689  0.92523299    -0.13100
Br589      Br  0.03554276  0.18390177  0.95312702    -0.05200
Br590      Br  0.04159145  0.00836640  0.95664309     0.00400
Br591      Br  0.07367515  0.15127906  0.88738839     0.00900
Br592      Br  0.93787281  0.08393316  0.93943252    -0.03600
Br593      Br  0.02363359  0.13641933  0.98439129     0.01000
Br594      Br  0.03631310  0.04574007  0.92546739    -0.02800
Br595      Br  0.10873618  0.15661042  0.92046436    -0.03700
Br596      Br  0.91386326  0.11780289  0.91120511     0.00300
C597        C  0.96324658  0.22831579  0.87633601     0.01700
C598        C  0.94867018  0.23719522  0.88877860     0.04500
C599        C  0.92092042  0.25253107  0.88787383    -0.11600
C600        C  0.91281177  0.26466087  0.87465505     0.23800
C601        C  0.93625027  0.26596371  0.86288722    -0.12100
C602        C  0.95959130  0.24567422  0.86348492     0.05200
C603        C  0.87453114  0.26724515  0.87226126     0.27600
C604        C  0.84005992  0.23389492  0.86521380    -0.12800
C605        C  0.80458162  0.23670525  0.86179991     0.05700
C606        C  0.80249927  0.27197573  0.86589229    -0.08800
C607        C  0.83525419  0.30342617  0.87410761     0.06500
C608        C  0.87216843  0.30218993  0.87664198    -0.13100
Br609      Br  0.93150670  0.29080177  0.84553026    -0.05200
Br610      Br  0.96443101  0.22575949  0.90692840     0.00400
Br611      Br  0.75791988  0.19118155  0.85212776     0.00900
Br612      Br  0.91946891  0.34839400  0.88590870    -0.03600
Br613      Br  0.98318218  0.23947349  0.84641775     0.01000
Br614      Br  0.89020074  0.25144979  0.90433028    -0.02800
Br615      Br  0.84102592  0.18373057  0.86046366    -0.03700
Br616      Br  0.82774021  0.34552609  0.88321176     0.00300
C617        C  0.25088584  0.49738911  0.74674781     0.01700
C618        C  0.28467732  0.50231482  0.75540555     0.04500
C619        C  0.27835993  0.47257187  0.76583114    -0.11600
C620        C  0.23764503  0.43978030  0.76897272     0.23800
C621        C  0.20322921  0.43728882  0.76152757    -0.12100
C622        C  0.20965800  0.46550774  0.75036702     0.05200
C623        C  0.23194916  0.40926667  0.78043979     0.27600
C624        C  0.22445121  0.36906950  0.77712152    -0.12800
C625        C  0.22856922  0.34412794  0.78763879     0.05700
C626        C  0.24299811  0.36003847  0.80148081    -0.08800
C627        C  0.24789051  0.39949144  0.80481979     0.06500
C628        C  0.24039045  0.42280438  0.79456864    -0.13100
Br629      Br  0.14719235  0.39470521  0.76662029    -0.05200
Br630      Br  0.33974308  0.55178656  0.75414865     0.00400
Br631      Br  0.21822052  0.28942031  0.78244125     0.00900
Br632      Br  0.24604961  0.47600185  0.79943644    -0.03600
Br633      Br  0.16127186  0.45945292  0.74035446     0.01000
Br634      Br  0.32631223  0.47623456  0.77556562    -0.02800
Br635      Br  0.21244585  0.34975321  0.75781140    -0.03700
Br636      Br  0.27268896  0.42675508  0.82226113     0.00300
C637        C  0.31671941  0.32980859  0.84037163     0.01700
C638        C  0.30665507  0.29500407  0.84913875     0.04500
C639        C  0.33804817  0.29468401  0.85755154    -0.11600
C640        C  0.37980052  0.32710595  0.85614946     0.23800
C641        C  0.38871968  0.36422564  0.84917392    -0.12100
C642        C  0.35664037  0.36615303  0.84184038     0.05200
C643        C  0.41389828  0.31796106  0.85840824     0.27600
C644        C  0.44442172  0.33850166  0.86904307    -0.12800
C645        C  0.48112164  0.33616276  0.86898713     0.05700
C646        C  0.48435581  0.30872058  0.85958187    -0.08800
C647        C  0.45183769  0.28473608  0.84998765     0.06500
C648        C  0.41791916  0.29125031  0.84877204    -0.13100
Br649      Br  0.44587855  0.40973147  0.84756040    -0.05200
Br650      Br  0.25267844  0.24528253  0.84854311     0.00400
Br651      Br  0.52826711  0.37326402  0.88072587     0.00900
Br652      Br  0.37872828  0.26533138  0.83328318    -0.03600
Br653      Br  0.36950123  0.41642708  0.83164216     0.01000
Br654      Br  0.32596017  0.24696401  0.86918407    -0.02800
Br655      Br  0.43592265  0.36971375  0.88350891    -0.03700
Br656      Br  0.45340501  0.24232710  0.83871706     0.00300
C657        C  0.22655730  0.31655871  0.83306309     0.01700
C658        C  0.19578321  0.27383893  0.83160060     0.04500
C659        C  0.16500119  0.25387234  0.84202394    -0.11600
C660        C  0.15734898  0.27799068  0.85174581     0.23800
C661        C  0.18671001  0.32124120  0.85263295    -0.12100
C662        C  0.22406868  0.33831754  0.84487501     0.05200
C663        C  0.11760774  0.25770462  0.86010485     0.27600
C664        C  0.07927288  0.23271967  0.85291643    -0.12800
C665        C  0.04340670  0.20560631  0.86053412     0.05700
C666        C  0.04130822  0.21245664  0.87512390    -0.08800
C667        C  0.07841573  0.24110226  0.88225830     0.06500
C668        C  0.11712661  0.25985367  0.87507035    -0.13100
Br669      Br  0.17567830  0.35840558  0.86345885    -0.05200
Br670      Br  0.19902592  0.24088454  0.81653985     0.00400
Br671      Br  0.00007802  0.15658904  0.85094938     0.00900
Br672      Br  0.16836331  0.28331032  0.88598544    -0.03600
Br673      Br  0.27311381  0.38559070  0.85281395     0.01000
Br674      Br  0.13570771  0.19350716  0.84360437    -0.02800
Br675      Br  0.07488983  0.23544783  0.83258712    -0.03700
Br676      Br  0.07630771  0.25200898  0.90195504     0.00300
C677        C  0.10679139  0.58847916  0.06928979     0.01700
C678        C  0.13051771  0.56950833  0.06622688     0.04500
C679        C  0.14518733  0.55460357  0.07731637    -0.11600
C680        C  0.13900257  0.56170869  0.09145114     0.23800
C681        C  0.11372228  0.57887491  0.09448651    -0.12100
C682        C  0.09693837  0.59138045  0.08349935     0.05200
C683        C  0.16492185  0.55914665  0.10302466     0.27600
C684        C  0.14692088  0.52704838  0.11316934    -0.12800
C685        C  0.16828818  0.53068015  0.12597328     0.05700
C686        C  0.20804251  0.56627848  0.12854740    -0.08800
C687        C  0.22741285  0.59646360  0.11778865     0.06500
C688        C  0.20571306  0.59325154  0.10519099    -0.13100
Br689      Br  0.10628150  0.59016817  0.11375801    -0.05200
Br690      Br  0.14878022  0.57019684  0.04723601     0.00400
Br691      Br  0.14103397  0.48894674  0.14042115     0.00900
Br692      Br  0.23043140  0.63791738  0.09146124    -0.03600
Br693      Br  0.06367635  0.61655424  0.08816434     0.01000
Br694      Br  0.17682505  0.52770142  0.07333858    -0.02800
Br695      Br  0.09145763  0.48004527  0.10991413    -0.03700
Br696      Br  0.28359538  0.64303237  0.12020876     0.00300
C697        C  0.98145509  0.79120363  0.02202309     0.01700
C698        C  0.98051313  0.76990760  0.00946227     0.04500
C699        C  0.98871617  0.73669730  0.01005998    -0.11600
C700        C  0.99957907  0.72566873  0.02296586     0.23800
C701        C  0.99910718  0.74557505  0.03549868    -0.12100
C702        C  0.98859007  0.77697169  0.03513857     0.05200
C703        C  0.01547731  0.69611540  0.02346844     0.27600
C704        C  0.99083367  0.65607602  0.02932942    -0.12800
C705        C  0.01000104  0.63400103  0.03447325     0.05700
C706        C  0.05368115  0.65086305  0.03288790    -0.08800
C707        C  0.07637273  0.68757043  0.02458336     0.06500
C708        C  0.05782018  0.71098217  0.02049556    -0.13100
Br709      Br  0.01560637  0.73158161  0.05321136    -0.05200
Br710      Br  0.97128479  0.78712244  0.99114621     0.00400
Br711      Br  0.97682505  0.58509775  0.04567533     0.00900
Br712      Br  0.09202865  0.76647016  0.01276458    -0.03600
Br713      Br  0.98323541  0.79889990  0.05299652     0.01000
Br714      Br  0.98716919  0.70714334  0.99315090    -0.02800
Br715      Br  0.93166795  0.63441837  0.03190888    -0.03700
Br716      Br  0.13525882  0.71029443  0.02070054     0.00300
C717        C  0.91213419  0.27761224  0.00843958     0.01700
C718        C  0.92457783  0.25742737  0.99862330     0.04500
C719        C  0.94249168  0.23404241  0.00332481    -0.11600
C720        C  0.94495100  0.22763609  0.01785466     0.23800
C721        C  0.93502715  0.24961775  0.02770105    -0.12100
C722        C  0.91909976  0.27508260  0.02296714     0.05200
C723        C  0.94907420  0.19135938  0.02219836     0.27600
C724        C  0.91338754  0.15109591  0.02114067    -0.12800
C725        C  0.91745503  0.11550701  0.02193521     0.05700
C726        C  0.95739497  0.11984109  0.02390038    -0.08800
C727        C  0.99296540  0.16021555  0.02553229     0.06500
C728        C  0.98867149  0.19586114  0.02480651    -0.13100
Br729      Br  0.94005471  0.24194161  0.04758982    -0.05200
Br730      Br  0.91286032  0.25754291  0.97870568     0.00400
Br731      Br  0.86783662  0.06098382  0.02001359     0.00900
Br732      Br  0.03710844  0.25102736  0.02660534    -0.03600
Br733      Br  0.90272835  0.30292891  0.03634287     0.01000
Br734      Br  0.95959608  0.20671138  0.98985353    -0.02800
Br735      Br  0.85894674  0.14496705  0.01765897    -0.03700
Br736      Br  0.04820553  0.16723036  0.02717032     0.00300
C737        C  0.85690425  0.34999588  0.97884866     0.01700
C738        C  0.81999382  0.35277483  0.97806068     0.04500
C739        C  0.80715383  0.36191721  0.96518198    -0.11600
C740        C  0.82866204  0.36464008  0.95276372     0.23800
C741        C  0.86758101  0.36673799  0.95359820    -0.12100
C742        C  0.88220384  0.36042096  0.96666361     0.05200
C743        C  0.80555492  0.35500038  0.93909665     0.27600
C744        C  0.77603056  0.31304604  0.93592908    -0.12800
C745        C  0.75061219  0.30281475  0.92377710     0.05700
C746        C  0.75616886  0.33450868  0.91407879    -0.08800
C747        C  0.78712072  0.37685145  0.91717635     0.06500
C748        C  0.81102733  0.38683390  0.92976785    -0.13100
Br749      Br  0.89808240  0.37323777  0.93645313    -0.05200
Br750      Br  0.78185596  0.33662811  0.99364446     0.00400
Br751      Br  0.70606310  0.24524168  0.92156507     0.00900
Br752      Br  0.85119922  0.44419558  0.93450615    -0.03600
Br753      Br  0.93343337  0.35935127  0.96690419     0.01000
Br754      Br  0.75653088  0.36485952  0.96397517    -0.02800
Br755      Br  0.76999401  0.26920959  0.94856825    -0.03700
Br756      Br  0.79865010  0.42228293  0.90441068     0.00300
C757        C  0.05227871  0.56465667  0.04051742     0.01700
C758        C  0.02336855  0.52740934  0.04767036     0.04500
C759        C  0.00215776  0.48892639  0.04038448    -0.11600
C760        C  0.00568602  0.48751378  0.02562622     0.23800
C761        C  0.03408636  0.52421646  0.01844111    -0.12100
C762        C  0.05903478  0.56169298  0.02597608     0.05200
C763        C  0.97805764  0.44778590  0.01775387     0.27600
C764        C  0.99411813  0.42393909  0.01187226    -0.12800
C765        C  0.96722767  0.38625627  0.00456132     0.05700
C766        C  0.92315307  0.36950778  0.00457699    -0.08800
C767        C  0.90761032  0.39133246  0.01220652     0.06500
C768        C  0.93462902  0.43199352  0.01717056    -0.13100
Br769      Br  0.03802027  0.52344497  0.99815470    -0.05200
Br770      Br  0.00793311  0.52789531  0.06694284     0.00400
Br771      Br  0.99208807  0.35853945  0.99511780     0.00900
Br772      Br  0.91168160  0.46575049  0.02332155    -0.03600
Br773      Br  0.10534876  0.60711654  0.01646820     0.01000
Br774      Br  0.96780128  0.43757698  0.05062765    -0.02800
Br775      Br  0.05269417  0.44206961  0.01446658    -0.03700
Br776      Br  0.85169144  0.36228039  0.01943385     0.00300
C777        C  0.94887190  0.61606803  0.15827786     0.01700
C778        C  0.98348272  0.65295219  0.16382783     0.04500
C779        C  0.01621692  0.65136897  0.17104338    -0.11600
C780        C  0.01514929  0.61312918  0.17262727     0.23800
C781        C  0.97846173  0.57582209  0.16882812    -0.12100
C782        C  0.94564007  0.57719508  0.16158773     0.05200
C783        C  0.05492047  0.61302229  0.17549642     0.27600
C784        C  0.07724227  0.61001812  0.16403418    -0.12800
C785        C  0.11533192  0.61079767  0.16630381     0.05700
C786        C  0.13296165  0.61699269  0.18004761    -0.08800
C787        C  0.11092417  0.62104975  0.19149391     0.06500
C788        C  0.07147172  0.61765085  0.18926278    -0.13100
Br789      Br  0.97519615  0.52304610  0.17252163    -0.05200
Br790      Br  0.99044490  0.70683466  0.15981862     0.00400
Br791      Br  0.14165907  0.60098890  0.15048305     0.00900
Br792      Br  0.03971153  0.61896565  0.20503377    -0.03600
Br793      Br  0.89828048  0.52546546  0.15519390     0.01000
Br794      Br  0.06479023  0.70221709  0.17759423    -0.02800
Br795      Br  0.05551720  0.60532269  0.14506260    -0.03700
Br796      Br  0.13586576  0.63447812  0.21013065     0.00300
C797        C  0.90040068  0.68393324  0.12501888     0.01700
C798        C  0.86377293  0.68642301  0.12326532     0.04500
C799        C  0.86473018  0.71901439  0.11514977    -0.11600
C800        C  0.90142268  0.74768451  0.10795535     0.23800
C801        C  0.93838739  0.74627186  0.11008752    -0.12100
C802        C  0.93819525  0.71527132  0.11877662     0.05200
C803        C  0.90090588  0.77708141  0.09720384     0.27600
C804        C  0.88533965  0.76247905  0.08345441    -0.12800
C805        C  0.89216490  0.79106254  0.07250896     0.05700
C806        C  0.91460152  0.83434445  0.07524047    -0.08800
C807        C  0.92655302  0.84874781  0.08918592     0.06500
C808        C  0.91980036  0.82019937  0.10015776    -0.13100
Br809      Br  0.98912924  0.78579623  0.10044815    -0.05200
Br810      Br  0.81148667  0.64371961  0.13097941     0.00400
Br811      Br  0.87181571  0.77112946  0.05363470     0.00900
Br812      Br  0.93725399  0.84003840  0.11917368    -0.03600
Br813      Br  0.99018002  0.71546627  0.12147920     0.01000
Br814      Br  0.81567868  0.72428089  0.11356462    -0.02800
Br815      Br  0.85580098  0.70334280  0.07947864    -0.03700
Br816      Br  0.95189644  0.90761222  0.09314020     0.00300
C817        C  0.71979113  0.53575205  0.24403069     0.01700
C818        C  0.74761328  0.54928374  0.25585354     0.04500
C819        C  0.74644536  0.52038767  0.26584539    -0.11600
C820        C  0.71618659  0.47779159  0.26465193     0.23800
C821        C  0.69202784  0.46335789  0.25217689    -0.12100
C822        C  0.69471853  0.49205586  0.24173004     0.05200
C823        C  0.70563445  0.44996280  0.27732202     0.27600
C824        C  0.72418868  0.42541270  0.27964631    -0.12800
C825        C  0.71393037  0.39952142  0.29172738     0.05700
C826        C  0.68576552  0.39889375  0.30198843    -0.08800
C827        C  0.66815910  0.42474274  0.29967918     0.06500
C828        C  0.67758351  0.44943970  0.28736781    -0.13100
Br829      Br  0.65257210  0.40434504  0.25009889    -0.05200
Br830      Br  0.78397232  0.60773352  0.25977938     0.00400
Br831      Br  0.73745010  0.36360576  0.29345593     0.00900
Br832      Br  0.65222019  0.48335466  0.28418578    -0.03600
Br833      Br  0.66076401  0.47068125  0.22503849     0.01000
Br834      Br  0.78366173  0.53931211  0.28203770    -0.02800
Br835      Br  0.76415070  0.42785864  0.26620457    -0.03700
Br836      Br  0.63267945  0.42902091  0.31352070     0.00300
C837        C  0.64200507  0.58527215  0.21457035     0.01700
C838        C  0.65055184  0.62076725  0.20651779     0.04500
C839        C  0.61760627  0.62210293  0.19929092    -0.11600
C840        C  0.57652484  0.58728965  0.19965689     0.23800
C841        C  0.56954257  0.54991998  0.20592536    -0.12100
C842        C  0.60114095  0.54977591  0.21419030     0.05200
C843        C  0.53955287  0.59234821  0.19702835     0.27600
C844        C  0.51841339  0.59560292  0.20877810    -0.12800
C845        C  0.48017816  0.59460023  0.20703016     0.05700
C846        C  0.46511712  0.59601159  0.19328620    -0.08800
C847        C  0.48710067  0.59360884  0.18143273     0.06500
C848        C  0.52311142  0.59000243  0.18338655    -0.13100
Br849      Br  0.51493070  0.50017773  0.20437022    -0.05200
Br850      Br  0.70623098  0.66887577  0.20661423     0.00400
Br851      Br  0.44870314  0.58879629  0.22391426     0.00900
Br852      Br  0.54880937  0.57947795  0.16755105    -0.03600
Br853      Br  0.58641159  0.50240750  0.22627749     0.01000
Br854      Br  0.62776021  0.67239763  0.18980817    -0.02800
Br855      Br  0.54194396  0.60087791  0.22754458    -0.03700
Br856      Br  0.46681282  0.59181760  0.16243877     0.00300
C857        C  0.87207513  0.63400480  0.15583975     0.01700
C858        C  0.83960589  0.59265288  0.15856914     0.04500
C859        C  0.81373797  0.58358279  0.17034734    -0.11600
C860        C  0.81401567  0.61620085  0.17799918     0.23800
C861        C  0.84163868  0.65804157  0.17376074    -0.12100
C862        C  0.87154515  0.66699052  0.16305531     0.05200
C863        C  0.78384999  0.60593870  0.18990497     0.27600
C864        C  0.74014908  0.58215256  0.18748313    -0.12800
C865        C  0.71226211  0.56594484  0.19897418     0.05700
C866        C  0.72659985  0.58102693  0.21285999    -0.08800
C867        C  0.76950026  0.61161620  0.21454296     0.06500
C868        C  0.79832272  0.61901383  0.20378726    -0.13100
Br869      Br  0.83728068  0.70298357  0.18214768    -0.05200
Br870      Br  0.82456189  0.54948277  0.14467088     0.00400
Br871      Br  0.65570140  0.52248890  0.19511067     0.00900
Br872      Br  0.85727701  0.64652085  0.20839278    -0.03600
Br873      Br  0.90840877  0.72404603  0.15747800     0.01000
Br874      Br  0.77887138  0.52598934  0.17606928    -0.02800
Br875      Br  0.71834592  0.57386088  0.16841416    -0.03700
Br876      Br  0.78732571  0.65270734  0.22920902     0.00300
C877        C  0.34473113  0.80275738  0.56790286     0.01700
C878        C  0.33067015  0.81069800  0.58075107     0.04500
C879        C  0.33809249  0.79667185  0.59369591    -0.11600
C880        C  0.36011862  0.77495033  0.59406891     0.23800
C881        C  0.37682847  0.76956474  0.58144053    -0.12100
C882        C  0.36865575  0.78291413  0.56838352     0.05200
C883        C  0.35924197  0.75207070  0.60722852     0.27600
C884        C  0.38661501  0.77282975  0.61869495    -0.12800
C885        C  0.38196357  0.75158618  0.63159238     0.05700
C886        C  0.34938558  0.70967893  0.63315811    -0.08800
C887        C  0.32387852  0.68833252  0.62139943     0.06500
C888        C  0.32811834  0.70963634  0.60863320    -0.13100
Br889      Br  0.40752785  0.74034747  0.58198358    -0.05200
Br890      Br  0.29756799  0.83756835  0.58054890     0.00400
Br891      Br  0.41928036  0.78031643  0.64724246     0.00900
Br892      Br  0.28935819  0.68147849  0.59327492    -0.03600
Br893      Br  0.38631218  0.77021195  0.55099522     0.01000
Br894      Br  0.31375072  0.80286943  0.61079339    -0.02800
Br895      Br  0.42881814  0.83098225  0.61693812    -0.03700
Br896      Br  0.28463863  0.62913857  0.62252102     0.00300
C897        C  0.12774223  0.91813152  0.52355372     0.01700
C898        C  0.12181524  0.88108124  0.53029019     0.04500
C899        C  0.15523199  0.87321864  0.53166929    -0.11600
C900        C  0.19388878  0.89935224  0.52509171     0.23800
C901        C  0.19938816  0.93466110  0.51759099    -0.12100
C902        C  0.16743179  0.94511739  0.51733028     0.05200
C903        C  0.22796151  0.88860927  0.52607078     0.27600
C904        C  0.26084972  0.90856571  0.53601504    -0.12800
C905        C  0.28751320  0.89245771  0.53912463     0.05700
C906        C  0.28038475  0.85480383  0.53282200    -0.08800
C907        C  0.24972074  0.83737956  0.52178660     0.06500
C908        C  0.22436454  0.85463660  0.51834405    -0.13100
Br909      Br  0.25080440  0.96823724  0.50745157    -0.05200
Br910      Br  0.06736303  0.83800690  0.53676181     0.00400
Br911      Br  0.33071314  0.92057436  0.55310535     0.00900
Br912      Br  0.18171226  0.82950231  0.50379336    -0.03600
Br913      Br  0.18017207  0.99786519  0.50903489     0.01000
Br914      Br  0.14826776  0.82630573  0.54281645    -0.02800
Br915      Br  0.26655450  0.95572179  0.54644851    -0.03700
Br916      Br  0.23856126  0.78709353  0.51200752     0.00300
C917        C  0.60039714  0.17382936  0.41323317     0.01700
C918        C  0.56102709  0.13805791  0.41639597     0.04500
C919        C  0.55504061  0.11617435  0.42926672    -0.11600
C920        C  0.58768472  0.13014069  0.43932552     0.23800
C921        C  0.62645783  0.16625736  0.43644798    -0.12100
C922        C  0.63274368  0.18814918  0.42361680     0.05200
C923        C  0.58121285  0.10879748  0.45334510     0.27600
C924        C  0.57076985  0.12425797  0.46518988    -0.12800
C925        C  0.57386611  0.11095152  0.47890955     0.05700
C926        C  0.58832733  0.08247027  0.48105874    -0.08800
C927        C  0.59432593  0.06373828  0.46896842     0.06500
C928        C  0.59035351  0.07658048  0.45522333    -0.13100
Br929      Br  0.67099861  0.18614049  0.45039750    -0.05200
Br930      Br  0.51447782  0.11848945  0.40338414     0.00400
Br931      Br  0.56135335  0.13482353  0.49479631     0.00900
Br932      Br  0.60043078  0.05231376  0.43884273    -0.03600
Br933      Br  0.68485164  0.24012440  0.42114874     0.01000
Br934      Br  0.50198149  0.06683091  0.43329745    -0.02800
Br935      Br  0.55539658  0.16638610  0.46255797    -0.03700
Br936      Br  0.61312130  0.02436131  0.47074421     0.00300
C937        C  0.67025403  0.04906552  0.51246424     0.01700
C938        C  0.70591532  0.06188072  0.50382210     0.04500
C939        C  0.73598586  0.05078555  0.50733525    -0.11600
C940        C  0.72863644  0.02248815  0.51838032     0.23800
C941        C  0.69226009  0.00788223  0.52662134    -0.12100
C942        C  0.66430894  0.02278721  0.52412323     0.05200
C943        C  0.75900589  0.00769581  0.52080214     0.27600
C944        C  0.76116994  0.98053703  0.51091588    -0.12800
C945        C  0.79379239  0.97152898  0.51174151     0.05700
C946        C  0.82309194  0.98741815  0.52297130    -0.08800
C947        C  0.82008914  0.01328062  0.53319706     0.06500
C948        C  0.78875955  0.02421114  0.53192215    -0.13100
Br949      Br  0.68100310  0.96762916  0.54134689    -0.05200
Br950      Br  0.71462912  0.09473995  0.48693400     0.00400
Br951      Br  0.79907233  0.93837471  0.49716063     0.00900
Br952      Br  0.78830006  0.06401735  0.54481976    -0.03600
Br953      Br  0.61963321  0.00914478  0.53716811     0.01000
Br954      Br  0.78864476  0.07606347  0.49739397    -0.02800
Br955      Br  0.71998874  0.95669365  0.49590455    -0.03700
Br956      Br  0.86073703  0.03609025  0.54837886     0.00300
C957        C  0.56819522  0.01833015  0.50831455     0.01700
C958        C  0.54476305  0.02936511  0.51728399     0.04500
C959        C  0.50531280  0.99876164  0.52242740    -0.11600
C960        C  0.49047107  0.95593272  0.52022854     0.23800
C961        C  0.51553168  0.94437740  0.51249400    -0.12100
C962        C  0.55407488  0.97527591  0.50659928     0.05200
C963        C  0.45033005  0.92353257  0.52703524     0.27600
C964        C  0.44733941  0.91966237  0.54187593    -0.12800
C965        C  0.40813777  0.89367977  0.54837421     0.05700
C966        C  0.37254287  0.86564445  0.54010940    -0.08800
C967        C  0.37842325  0.86500050  0.52536752     0.06500
C968        C  0.41489820  0.89659311  0.51883066    -0.13100
Br969      Br  0.49793268  0.88595974  0.51053205    -0.05200
Br970      Br  0.56933557  0.08501195  0.52495708     0.00400
Br971      Br  0.40502435  0.90012696  0.56835433     0.00900
Br972      Br  0.41537912  0.90337494  0.49862013    -0.03600
Br973      Br  0.58961569  0.95800703  0.49795631     0.01000
Br974      Br  0.47166991  0.01587861  0.53273759    -0.02800
Br975      Br  0.49755010  0.94950304  0.55331004    -0.03700
Br976      Br  0.34152337  0.81662884  0.51434439     0.00300
C977        C  0.28883509  0.95275070  0.66286032     0.01700
C978        C  0.32901686  0.96538878  0.66836951     0.04500
C979        C  0.33662717  0.93596404  0.67523274    -0.11600
C980        C  0.30343422  0.89463778  0.67724541     0.23800
C981        C  0.26237351  0.88368835  0.67338834    -0.12100
C982        C  0.25539484  0.91166688  0.66552523     0.05200
C983        C  0.31144905  0.86015605  0.68049814     0.27600
C984        C  0.31322366  0.83668191  0.66921515    -0.12800
C985        C  0.31033657  0.79797550  0.67171323     0.05700
C986        C  0.30640038  0.78243636  0.68568349    -0.08800
C987        C  0.30876496  0.80840143  0.69709436     0.06500
C988        C  0.31042975  0.84667578  0.69442893    -0.13100
Br989      Br  0.21632218  0.82832290  0.67756142    -0.05200
Br990      Br  0.37429287  0.02138825  0.66494369     0.00400
Br991      Br  0.31340126  0.76796404  0.65562337     0.00900
Br992      Br  0.30955163  0.88029558  0.70974447    -0.03600
Br993      Br  0.20059146  0.89167771  0.65706264     0.01000
Br994      Br  0.39282001  0.95069241  0.68056885    -0.02800
Br995      Br  0.31786364  0.85724647  0.65011489    -0.03700
Br996      Br  0.30919545  0.79274719  0.71649412     0.00300
C997        C  0.23970285  0.02900023  0.63134064     0.01700
C998        C  0.19955563  0.01838335  0.63630134     0.04500
C999        C  0.16948071  0.01825671  0.62696248    -0.11600
C1000       C  0.17966668  0.02991754  0.61275794     0.23800
C1001       C  0.22138167  0.04698809  0.60840360    -0.12100
C1002       C  0.25117230  0.04604973  0.61750828     0.05200
C1003       C  0.14609398  0.01674777  0.60177365     0.27600
C1004       C  0.13457096  0.98048252  0.59384248    -0.12800
C1005       C  0.10810867  0.97050389  0.58191450     0.05700
C1006       C  0.09043030  0.99560095  0.57816893    -0.08800
C1007       C  0.10011786  0.03072917  0.58693551     0.06500
C1008       C  0.12818564  0.04129775  0.59851277    -0.13100
Br1009     Br  0.23593795  0.06613467  0.58915704    -0.05200
Br1010     Br  0.18245592  0.99726582  0.65506290     0.00400
Br1011     Br  0.10005320  0.92388780  0.57046571     0.00900
Br1012     Br  0.14238266  0.08944257  0.61012868    -0.03600
Br1013     Br  0.30516117  0.06096038  0.60971444     0.01000
Br1014     Br  0.11272248  0.99720340  0.63309424    -0.02800
Br1015     Br  0.15588010  0.94441517  0.59944422    -0.03700
Br1016     Br  0.07510512  0.06499118  0.58381287     0.00300
C1017       C  0.30617779  0.44083319  0.69362628     0.01700
C1018       C  0.31359362  0.42782386  0.70693776     0.04500
C1019       C  0.31692760  0.39183610  0.70800303    -0.11600
C1020       C  0.30838006  0.36551846  0.69622957     0.23800
C1021       C  0.29850952  0.37662362  0.68314898    -0.12100
C1022       C  0.29916920  0.41490080  0.68165191     0.05200
C1023       C  0.30910841  0.32597590  0.69819983     0.27600
C1024       C  0.34554403  0.32468188  0.69511221    -0.12800
C1025       C  0.35370831  0.29585956  0.70215709     0.05700
C1026       C  0.32748540  0.27110838  0.71328812    -0.08800
C1027       C  0.28940923  0.27085196  0.71550064     0.06500
C1028       C  0.27860732  0.29490614  0.70685757    -0.13100
Br1029     Br  0.28347414  0.33880426  0.66737897    -0.05200
Br1030     Br  0.31587819  0.45620409  0.72431820     0.00400
Br1031     Br  0.40516572  0.29700267  0.69835692     0.00900
Br1032     Br  0.22483814  0.29103113  0.70860377    -0.03600
Br1033     Br  0.29257528  0.43160780  0.66288676     0.01000
Br1034     Br  0.33380313  0.37873714  0.72582610    -0.02800
Br1035     Br  0.38669038  0.36605385  0.68264029    -0.03700
Br1036     Br  0.25680734  0.24754388  0.73238445     0.00300
C1037       C  0.53178817  0.24355135  0.80272965     0.01700
C1038       C  0.50624146  0.26113329  0.79971498     0.04500
C1039       C  0.48043327  0.24864227  0.78759162    -0.11600
C1040       C  0.48320760  0.22252313  0.77745574     0.23800
C1041       C  0.51023412  0.20687226  0.77989669    -0.12100
C1042       C  0.53393698  0.21669554  0.79253822     0.05200
C1043       C  0.46217226  0.21759882  0.76351818     0.27600
C1044       C  0.42130961  0.18394198  0.76093822    -0.12800
C1045       C  0.39589163  0.18747276  0.75041632     0.05700
C1046       C  0.41098812  0.22510788  0.74281546    -0.08800
C1047       C  0.45377998  0.25650475  0.74431162     0.06500
C1048       C  0.47954520  0.25190949  0.75425943    -0.13100
Br1049     Br  0.51582102  0.17327669  0.76559260    -0.05200
Br1050     Br  0.50792462  0.30502177  0.81113450     0.00400
Br1051     Br  0.33889768  0.14315416  0.74770523     0.00900
Br1052     Br  0.53743288  0.29539153  0.75665019    -0.03600
Br1053     Br  0.57288080  0.19686272  0.79480174     0.01000
Br1054     Br  0.44128155  0.26807751  0.78460897    -0.02800
Br1055     Br  0.39916950  0.13504898  0.77275256    -0.03700
Br1056     Br  0.47575226  0.30923863  0.73446405     0.00300
C1057       C  0.28428784  0.03767119  0.66222506     0.01700
C1058       C  0.27124759  0.02635608  0.67647608     0.04500
C1059       C  0.28593354  0.05712249  0.68718394    -0.11600
C1060       C  0.30798759  0.09982769  0.68366111     0.23800
C1061       C  0.31770293  0.11141179  0.66947480    -0.12100
C1062       C  0.30979592  0.08094424  0.65919701     0.05200
C1063       C  0.32189274  0.13267307  0.69482458     0.27600
C1064       C  0.29249792  0.13922973  0.70185320    -0.12800
C1065       C  0.30561293  0.16874244  0.71282441     0.05700
C1066       C  0.34868980  0.19739146  0.71534497    -0.08800
C1067       C  0.37831200  0.19097752  0.70806685     0.01700
C1068       C  0.36465535  0.15733023  0.69848798    -0.13100
Br1069     Br  0.34151035  0.16933137  0.66411198    -0.05200
Br1070     Br  0.22999310  0.97058965  0.68189899     0.00400
Br1071     Br  0.26418967  0.16409981  0.72581191     0.00900
Br1072     Br  0.40437892  0.14418869  0.69046078    -0.03600
Br1073     Br  0.34080308  0.10000947  0.64204464     0.01000
Br1074     Br  0.27635980  0.04090573  0.70683095    -0.02800
Br1075     Br  0.23412801  0.10826992  0.69629483    -0.03700
Br1076     Br  0.43754552  0.22789640  0.71030880     0.00300
C1077       C  0.71342116  0.96432036  0.37003240     0.01700
C1078       C  0.70251930  0.98616928  0.37971167     0.04500
C1079       C  0.68656627  0.01140176  0.37489414    -0.11600
C1080       C  0.68332734  0.01715801  0.36033872     0.23800
C1081       C  0.69168347  0.99351866  0.35064522    -0.12100
C1082       C  0.70628088  0.96688015  0.35549573     0.05200
C1083       C  0.67681747  0.05218028  0.35563424     0.27600
C1084       C  0.63670065  0.04544766  0.35221289    -0.12800
C1085       C  0.63060236  0.07986961  0.35003405     0.05700
C1086       C  0.66386752  0.12133881  0.35262128    -0.08800
C1087       C  0.70465158  0.12761376  0.35419809     0.06500
C1088       C  0.71111999  0.09342333  0.35567873    -0.13100
Br1089     Br  0.68553393  0.99966436  0.33072097    -0.05200
Br1090     Br  0.71338216  0.98534708  0.39964430     0.00400
Br1091     Br  0.57791263  0.06947842  0.34223982     0.00900
Br1092     Br  0.76722227  0.10288127  0.35773588    -0.03600
Br1093     Br  0.71940096  0.93627003  0.34220080     0.01000
Br1094     Br  0.67132630  0.04043324  0.38826853    -0.02800
Br1095     Br  0.59015973  0.98898236  0.35077749    -0.03700
Br1096     Br  0.75222002  0.18273819  0.35222889     0.00300
C1097       C  0.76006485  0.88872851  0.40157926     0.01700
C1098       C  0.73438108  0.88336930  0.41330815     0.04500
C1099       C  0.74797333  0.88157804  0.42718373    -0.11600
C1100       C  0.78606771  0.88243578  0.42940587     0.23800
C1101       C  0.80757905  0.87976970  0.41770254    -0.12100
C1102       C  0.79522951  0.88364042  0.40391107     0.05200
C1103       C  0.80726930  0.89274757  0.44356595     0.27600
C1104       C  0.83964256  0.93404859  0.44628249    -0.12800
C1105       C  0.86422800  0.94384632  0.45869465     0.05700
C1106       C  0.85605891  0.91224551  0.46882207    -0.08800
C1107       C  0.82110835  0.87150459  0.46654315     0.06500
C1108       C  0.79753082  0.86172966  0.45385516    -0.13100
Br1109     Br  0.85675363  0.87507859  0.42081214    -0.05200
Br1110     Br  0.68232390  0.88208755  0.41076059     0.00400
Br1111     Br  0.91003635  0.00075014  0.46103089     0.00900
Br1112     Br  0.75212583  0.80559910  0.45039700    -0.03600
Br1113     Br  0.82995615  0.88626203  0.38856830     0.01000
Br1114     Br  0.71654162  0.88185261  0.44324368    -0.02800
Br1115     Br  0.85079409  0.97734500  0.43263321    -0.03700
Br1116     Br  0.80311502  0.82914543  0.48104172     0.00300
C1117       C  0.62173785  0.61648196  0.31973250     0.01700
C1118       C  0.59693897  0.57325486  0.31627058     0.04500
C1119       C  0.59995240  0.54275899  0.32429946    -0.11600
C1120       C  0.62696645  0.55429323  0.33611131     0.23800
C1121       C  0.65119656  0.59698979  0.33978220    -0.12100
C1122       C  0.64958393  0.62792030  0.33139981     0.05200
C1123       C  0.63175772  0.52130323  0.34372794     0.27600
C1124       C  0.59915440  0.49143568  0.35229266    -0.12800
C1125       C  0.59883167  0.45468583  0.35658001     0.05700
C1126       C  0.63217183  0.44852536  0.35297391    -0.08800
C1127       C  0.66701031  0.48065564  0.34584993     0.06500
C1128       C  0.66628052  0.51620345  0.34086333    -0.13100
Br1129     Br  0.68762845  0.61308963  0.35611138    -0.05200
Br1130     Br  0.56004536  0.55429681  0.29996406     0.00400
Br1131     Br  0.55252617  0.41245720  0.36719686     0.00900
Br1132     Br  0.71108289  0.55605738  0.32906571    -0.03600
Br1133     Br  0.68967134  0.68574392  0.33491523     0.01000
Br1134     Br  0.56850545  0.48469733  0.31858195    -0.02800
Br1135     Br  0.55413923  0.50032600  0.35761716    -0.03700
Br1136     Br  0.71483082  0.47467147  0.34210313     0.00300
C1137       C  0.55613573  0.68501620  0.29528524     0.01700
C1138       C  0.56366440  0.72221604  0.28845690     0.04500
C1139       C  0.53141568  0.72320467  0.28075280    -0.11600
C1140       C  0.49318598  0.68600765  0.27837192     0.23800
C1141       C  0.48423507  0.64982604  0.28601337    -0.12100
C1142       C  0.51498995  0.65006807  0.29495763     0.05200
C1143       C  0.46607318  0.68323438  0.26623246     0.27600
C1144       C  0.42614782  0.67841306  0.26831205    -0.12800
C1145       C  0.39904472  0.67034685  0.25666576     0.05700
C1146       C  0.41272793  0.66924593  0.24295212    -0.08800
C1147       C  0.45448657  0.68021324  0.24078790     0.06500
C1148       C  0.48036534  0.68469954  0.25234647    -0.13100
Br1149     Br  0.43154421  0.59853735  0.28307990    -0.05200
Br1150     Br  0.61848089  0.77103046  0.28818800     0.00400
Br1151     Br  0.34382173  0.66165523  0.25941096     0.00900
Br1152     Br  0.53448710  0.69068095  0.24894787    -0.03600
Br1153     Br  0.50124835  0.60071815  0.30564830     0.01000
Br1154     Br  0.54035689  0.77452441  0.27226206    -0.02800
Br1155     Br  0.40881529  0.68282919  0.28703052    -0.03700
Br1156     Br  0.47691735  0.69246941  0.22195660     0.00300
C1157       C  0.61342089  0.70135322  0.32312764     0.01700
C1158       C  0.59298496  0.69203491  0.33625635     0.04500
C1159       C  0.60666433  0.72326243  0.34689885    -0.11600
C1160       C  0.63787256  0.76512802  0.34391169     0.23800
C1161       C  0.65520241  0.77465181  0.33026500    -0.12100
C1162       C  0.64679986  0.74249164  0.32073152     0.05200
C1163       C  0.65794636  0.79827015  0.35517586     0.27600
C1164       C  0.63738914  0.81776115  0.36126492    -0.12800
C1165       C  0.65955614  0.85259097  0.37048836     0.05700
C1166       C  0.70352984  0.87124026  0.37238870    -0.08800
C1167       C  0.72398819  0.85426452  0.36474845     0.06500
C1168       C  0.70107763  0.81545142  0.35799631    -0.13100
Br1169     Br  0.69178415  0.83198482  0.32459935    -0.05200
Br1170     Br  0.54857532  0.63597820  0.33991524     0.00400
Br1171     Br  0.62989148  0.87633436  0.37934372     0.00900
Br1172     Br  0.73027196  0.78773449  0.35170763    -0.03600
Br1173     Br  0.68691834  0.75379077  0.30601367     0.01000
Br1174     Br  0.58416265  0.70806727  0.36562769    -0.02800
Br1175     Br  0.58003139  0.79907489  0.35611926    -0.03700
Br1176     Br  0.78152832  0.88926135  0.35932018     0.00300
C1177       C  0.90362839  0.00084587  0.07785828     0.01700
C1178       C  0.91971908  0.04266354  0.08274448     0.04500
C1179       C  0.90541819  0.05045950  0.09552787    -0.11600
C1180       C  0.87407637  0.01722659  0.10332816     0.23800
C1181       C  0.85576515  0.97620083  0.09809458    -0.12100
C1182       C  0.87096627  0.96764934  0.08576018     0.05200
C1183       C  0.86228654  0.02359146  0.11772332     0.27600
C1184       C  0.87643954  0.01055682  0.12940753    -0.12800
C1185       C  0.85389056  0.99972806  0.14209647     0.05700
C1186       C  0.81870817  0.00517847  0.14362381    -0.08800
C1187       C  0.80984550  0.02560357  0.13262966     0.06500
C1188       C  0.83058049  0.03342784  0.11956202    -0.13100
Br1189     Br  0.80969625  0.93114744  0.10824755    -0.05200
Br1190     Br  0.96047439  0.09055089  0.07213319     0.00400
Br1191     Br  0.86712338  0.96970572  0.15595233     0.00900
Br1192     Br  0.81188265  0.05232029  0.10359114    -0.03600
Br1193     Br  0.84729183  0.90921178  0.08086207     0.01000
Br1194     Br  0.92868447  0.10674073  0.10256792    -0.02800
Br1195     Br  0.92294161  0.00119285  0.12711137    -0.03700
Br1196     Br  0.76464733  0.03652992  0.13430444     0.00300
C1197       C  0.48614039  0.77156809  0.19253128     0.01700
C1198       C  0.49547376  0.81188636  0.19713298     0.04500
C1199       C  0.53545704  0.84709929  0.19463503    -0.11600
C1200       C  0.56730371  0.84202141  0.18876314     0.23800
C1201       C  0.56001632  0.80159702  0.18617022    -0.12100
C1202       C  0.51987067  0.76655983  0.18806882     0.05200
C1203       C  0.60751499  0.87859782  0.18411759     0.27600
C1204       C  0.61128000  0.89123726  0.16992845    -0.12800
C1205       C  0.65109652  0.91716544  0.16415188     0.05700
C1206       C  0.68759343  0.93227635  0.17269421    -0.08800
C1207       C  0.68343601  0.92215338  0.18717596     0.06500
C1208       C  0.64344040  0.89531376  0.19288233    -0.13100
Br1209     Br  0.60506552  0.79456749  0.17927199    -0.05200
Br1210     Br  0.45550854  0.82024329  0.20738445     0.00400
Br1211     Br  0.65573225  0.92666888  0.14396176     0.00900
Br1212     Br  0.63800557  0.87742256  0.21226877    -0.03600
Br1213     Br  0.51298670  0.71184983  0.18529011     0.01000
Br1214     Br  0.54641699  0.90277905  0.19848802    -0.02800
Br1215     Br  0.56193340  0.86862514  0.15797192    -0.03700
Br1216     Br  0.73284344  0.93967631  0.19864612     0.00300
C1217       C  0.70726174  0.24206672  0.30088632     0.01700
C1218       C  0.68770113  0.23915828  0.28775798     0.04500
C1219       C  0.70252983  0.22989830  0.27545526    -0.11600
C1220       C  0.73829618  0.22565589  0.27617454     0.23800
C1221       C  0.75870646  0.23016389  0.28929595    -0.12100
C1222       C  0.74286268  0.23777043  0.30161129     0.05200
C1223       C  0.75572792  0.21730525  0.26334471     0.27600
C1224       C  0.75380714  0.17864708  0.26192888    -0.12800
C1225       C  0.78268179  0.17542954  0.25324041     0.05700
C1226       C  0.81194314  0.21022782  0.24527151    -0.08800
C1227       C  0.80722792  0.24566139  0.24454725     0.06500
C1228       C  0.78054741  0.25001316  0.25397708    -0.13100
Br1229     Br  0.80897053  0.22653325  0.29045890    -0.05200
Br1230     Br  0.64235504  0.25054635  0.28656698     0.00400
Br1231     Br  0.78340754  0.12412577  0.25324954     0.00900
Br1232     Br  0.78202924  0.30266851  0.25521426    -0.03600
Br1233     Br  0.76984583  0.24202783  0.31954481     0.01000
Br1234     Br  0.67367635  0.22262251  0.25770681    -0.02800
Br1235     Br  0.71473173  0.13174937  0.27323324    -0.03700
Br1236     Br  0.84023815  0.29036957  0.23170793     0.00300
C1237       C  0.94834902  0.27643171  0.22289662     0.01700
C1238       C  0.96694960  0.31980609  0.22591561     0.04500
C1239       C  0.00229583  0.34953254  0.21844464    -0.11600
C1240       C  0.01775455  0.33713164  0.20710464     0.23800
C1241       C  0.99836887  0.29440257  0.20358896    -0.12100
C1242       C  0.96518772  0.26408390  0.21186934     0.05200
C1243       C  0.05638457  0.36935453  0.19981892     0.27600
C1244       C  0.05454937  0.39853041  0.19065461    -0.12800
C1245       C  0.09171212  0.43469270  0.18641522     0.05700
C1246       C  0.13095477  0.44161822  0.19111625    -0.08800
C1247       C  0.13287155  0.41177457  0.19989523     0.06500
C1248       C  0.09577776  0.37541480  0.20401796    -0.13100
Br1249     Br  0.01847503  0.27753196  0.18770870    -0.05200
Br1250     Br  0.94589073  0.33994573  0.24063859     0.00400
Br1251     Br  0.08893109  0.47675364  0.17520589     0.00900
Br1252     Br  0.09880312  0.33540708  0.21634521    -0.03600
Br1253     Br  0.94711200  0.20612154  0.20914946     0.01000
Br1254     Br  0.03166421  0.40745515  0.22439399    -0.02800
Br1255     Br  0.00085449  0.39033789  0.18478374    -0.03700
Br1256     Br  0.18592661  0.42311618  0.20774815     0.00300
C1257       C  0.77356132  0.02153177  0.17019749     0.01700
C1258       C  0.74895412  0.04094002  0.17153851     0.04500
C1259       C  0.76271060  0.07644255  0.18036952    -0.11600
C1260       C  0.80289206  0.09565037  0.18667971     0.23800
C1261       C  0.82850890  0.07844551  0.18429967    -0.12100
C1262       C  0.81210054  0.03959126  0.17761376     0.05200
C1263       C  0.81631087  0.12891726  0.19771909     0.27600
C1264       C  0.83000514  0.17103951  0.19427369    -0.12800
C1265       C  0.84755775  0.20239653  0.20485354     0.05700
C1266       C  0.85470816  0.19239986  0.21860641    -0.08800
C1267       C  0.84453840  0.15086601  0.22147549     0.06500
C1268       C  0.82141893  0.11894483  0.21168841    -0.13100
Br1269     Br  0.88575705  0.10672458  0.19106679    -0.05200
Br1270     Br  0.69643397  0.02033131  0.16178153     0.00400
Br1271     Br  0.86549905  0.25941761  0.20016622     0.00900
Br1272     Br  0.79815152  0.06128818  0.21736756    -0.03600
Br1273     Br  0.83761089  0.00710068  0.18211728     0.01000
Br1274     Br  0.72585323  0.09764511  0.18440800    -0.02800
Br1275     Br  0.82675232  0.18609189  0.17501112    -0.03700
Br1276     Br  0.87028390  0.13875877  0.23721579     0.00300
C1277       C  0.02460734  0.34129431  0.34303714     0.01700
C1278       C  0.01649794  0.36217107  0.35401532     0.04500
C1279       C  0.97575092  0.34550550  0.35930011    -0.11600
C1280       C  0.94242495  0.30998996  0.35294223     0.23800
C1281       C  0.95077900  0.28614967  0.34350018    -0.12100
C1282       C  0.99205912  0.30104940  0.33891547     0.05200
C1283       C  0.89976584  0.30420337  0.35354921     0.27600
C1284       C  0.87205920  0.28064913  0.36428407    -0.12800
C1285       C  0.83284453  0.27813447  0.36536002     0.05700
C1286       C  0.82049462  0.29914078  0.35529833    -0.08800
C1287       C  0.84975813  0.32346609  0.34452909     0.06500
C1288       C  0.88854809  0.32519738  0.34365277    -0.13100
Br1289     Br  0.90453237  0.23617982  0.33539593    -0.05200
Br1290     Br  0.05836457  0.41739376  0.36020357     0.00400
Br1291     Br  0.79868851  0.24600974  0.38123285     0.00900
Br1292     Br  0.92751113  0.35698710  0.32875797    -0.03600
Br1293     Br  0.00124689  0.26861626  0.32528907     0.01000
Br1294     Br  0.96405139  0.37426936  0.37389259    -0.02800
Br1295     Br  0.88880266  0.25191948  0.37754961    -0.03700
Br1296     Br  0.84017854  0.35690153  0.33082542     0.00300
C1297       C  0.13011334  0.38809002  0.30409773     0.01700
C1298       C  0.11002023  0.37383079  0.29079098     0.04500
C1299       C  0.13325285  0.38769008  0.27829755    -0.11600
C1300       C  0.17559876  0.41968161  0.27885409     0.23800
C1301       C  0.19649190  0.43182971  0.29203015    -0.12100
C1302       C  0.17389349  0.41511654  0.30462296     0.05200
C1303       C  0.19435474  0.44574218  0.26601050     0.27600
C1304       C  0.22397372  0.44231583  0.25785075    -0.12800
C1305       C  0.23988836  0.46635453  0.24542335     0.05700
C1306       C  0.22441260  0.49260952  0.24062819    -0.08800
C1307       C  0.19036429  0.49100113  0.24803503     0.06500
C1308       C  0.17861257  0.47114780  0.26122045    -0.13100
Br1309     Br  0.25483004  0.47469878  0.29287700    -0.05200
Br1310     Br  0.04951871  0.34066088  0.28940651     0.00400
Br1311     Br  0.27923141  0.45846215  0.23448047     0.00900
Br1312     Br  0.14068342  0.47917222  0.27291561    -0.03600
Br1313     Br  0.20172497  0.43363597  0.32263020     0.01000
Br1314     Br  0.10593996  0.36706869  0.26019934    -0.02800
Br1315     Br  0.24183077  0.40376308  0.26363074    -0.03700
Br1316     Br  0.15450152  0.50996146  0.23996594     0.00300
C1317       C  0.11940649  0.15262707  0.40198288     0.01700
C1318       C  0.08009575  0.11640268  0.40499835     0.04500
C1319       C  0.06286286  0.10996991  0.41858824    -0.11600
C1320       C  0.08682988  0.13639169  0.42973473     0.23800
C1321       C  0.12329332  0.17449556  0.42663470    -0.12100
C1322       C  0.13796068  0.18368017  0.41261509     0.05200
C1323       C  0.07865781  0.11851383  0.44427539     0.27600
C1324       C  0.05697930  0.12807114  0.45430285    -0.12800
C1325       C  0.04329039  0.10489175  0.46698587     0.05700
C1326       C  0.04900961  0.07018325  0.46931396    -0.08800
C1327       C  0.07233736  0.06201511  0.45935038     0.06500
C1328       C  0.08848359  0.08723652  0.44729505    -0.13100
Br1329     Br  0.15589362  0.21154114  0.44182758    -0.05200
Br1330     Br  0.05233142  0.07107978  0.39169941     0.00400
Br1331     Br  0.01830295  0.12240820  0.48119994     0.00900
Br1332     Br  0.12326945  0.07801299  0.43442662    -0.03600
Br1333     Br  0.18591197  0.23719523  0.40871436     0.01000
Br1334     Br  0.00915777  0.06111588  0.42268154    -0.02800
Br1335     Br  0.04542846  0.17236707  0.45047082    -0.03700
Br1336     Br  0.07946596  0.01397696  0.46100152     0.00300
C1337       C  0.24262269  0.19266272  0.37162500     0.01700
C1338       C  0.27600129  0.21024578  0.38157979     0.04500
C1339       C  0.31769288  0.22744679  0.37718712    -0.11600
C1340       C  0.32654204  0.22426959  0.36298105     0.23800
C1341       C  0.29352871  0.20748882  0.35293495    -0.12100
C1342       C  0.25172299  0.19226154  0.35723690     0.05200
C1343       C  0.36923750  0.23221817  0.35942169     0.27600
C1344       C  0.39977943  0.27025923  0.35342549    -0.12800
C1345       C  0.44137274  0.27882721  0.35162615     0.05700
C1346       C  0.45365311  0.25050406  0.35685316    -0.08800
C1347       C  0.42227018  0.21226749  0.36300001     0.06500
C1348       C  0.38037996  0.20276846  0.36366958    -0.13100
Br1349     Br  0.30530694  0.20234932  0.33353364    -0.05200
Br1350     Br  0.26469524  0.20843520  0.40151407     0.00400
Br1351     Br  0.48096524  0.33073022  0.34265350     0.00900
Br1352     Br  0.33768244  0.14936058  0.37106146    -0.03600
Br1353     Br  0.20638420  0.16755414  0.34369655     0.01000
Br1354     Br  0.36291174  0.25260532  0.39087051    -0.02800
Br1355     Br  0.38478268  0.31155105  0.34849700    -0.03700
Br1356     Br  0.43467472  0.17176360  0.37119052     0.00300
C1357       C  0.16244315  0.20681037  0.37337166     0.01700
C1358       C  0.12264746  0.18930944  0.36665994     0.04500
C1359       C  0.10932350  0.21492298  0.36028496    -0.11600
C1360       C  0.13833859  0.25729010  0.35778540     0.23800
C1361       C  0.17989162  0.27425485  0.36271374    -0.12100
C1362       C  0.19136830  0.25002860  0.37113636     0.05200
C1363       C  0.12588323  0.28364555  0.34948718     0.27600
C1364       C  0.11756290  0.27713900  0.33486379    -0.12800
C1365       C  0.10532774  0.30192785  0.32710173     0.05700
C1366       C  0.10446620  0.33572576  0.33373054    -0.08800
C1367       C  0.11860995  0.34508275  0.34787736     0.06500
C1368       C  0.12526178  0.31723196  0.35601290    -0.13100
Br1369     Br  0.22144480  0.33078196  0.35752205    -0.05200
Br1370     Br  0.08981883  0.13039456  0.36308381     0.00400
Br1371     Br  0.09008278  0.28799072  0.30762639     0.00900
Br1372     Br  0.13289098  0.32492290  0.37619892    -0.03600
Br1373     Br  0.24671726  0.27804946  0.37926458     0.01000
Br1374     Br  0.05112118  0.19173872  0.35500723    -0.02800
Br1375     Br  0.12350587  0.23435987  0.32544105    -0.03700
Br1376     Br  0.13703631  0.39962124  0.35540728     0.00300
C1377       C  0.79548073  0.94437810  0.02139497     0.01700
C1378       C  0.76935149  0.93257677  0.00929497     0.04500
C1379       C  0.72908458  0.92757287  0.01014979    -0.11600
C1380       C  0.71444885  0.93296106  0.02318365     0.23800
C1381       C  0.74114664  0.94603142  0.03514772    -0.12100
C1382       C  0.78179241  0.95263531  0.03416120     0.05200
C1383       C  0.66982583  0.92013235  0.02510337     0.27600
C1384       C  0.65888552  0.95044488  0.02824913    -0.12800
C1385       C  0.62262853  0.93916732  0.03615281     0.05700
C1386       C  0.59604712  0.89704848  0.04002904    -0.08800
C1387       C  0.60346216  0.86594728  0.03450384     0.06500
C1388       C  0.64073954  0.87756052  0.02734783    -0.13100
Br1389     Br  0.72139984  0.95251357  0.05325769    -0.05200
Br1390     Br  0.78712844  0.92005564  0.99185533     0.00400
Br1391     Br  0.61459106  0.98237083  0.04395225     0.00900
Br1392     Br  0.65504503  0.83553147  0.02284720    -0.03600
Br1393     Br  0.81891027  0.97395719  0.05036529     0.01000
Br1394     Br  0.69309012  0.91144267  0.99370495    -0.02800
Br1395     Br  0.69732758  0.00819157  0.02366189    -0.03700
Br1396     Br  0.56649015  0.80746940  0.03901264     0.00300
C1397       C  0.49020880  0.86123123  0.07868351     0.01700
C1398       C  0.49702012  0.87525039  0.09293516     0.04500
C1399       C  0.46699662  0.85219217  0.10321368    -0.11600
C1400       C  0.43076870  0.81460221  0.09946085     0.23800
C1401       C  0.42125728  0.80339996  0.08519995    -0.12100
C1402       C  0.45110341  0.82638254  0.07479208     0.05200
C1403       C  0.40898361  0.78292784  0.11055904     0.27600
C1404       C  0.42306266  0.75503925  0.11380738    -0.12800
C1405       C  0.40738436  0.72865785  0.12560341     0.05700
C1406       C  0.37697968  0.72989424  0.13431811    -0.08800
C1407       C  0.36282025  0.75814651  0.13080200     0.06500
C1408       C  0.37797243  0.78347308  0.11871573    -0.13100
Br1409     Br  0.36964271  0.75299318  0.08038492    -0.05200
Br1410     Br  0.55056074  0.92141219  0.09921182     0.00400
Br1411     Br  0.42918722  0.69186212  0.12935611     0.00900
Br1412     Br  0.35662123  0.81934835  0.11313128    -0.03600
Br1413     Br  0.44116010  0.80407045  0.05598892     0.01000
Br1414     Br  0.47798967  0.86867552  0.12285189    -0.02800
Br1415     Br  0.46445711  0.75332585  0.10194151    -0.03700
Br1416     Br  0.32590439  0.76648344  0.14290070     0.00300
C1417       C  0.56593872  0.16948149  0.91350786     0.01700
C1418       C  0.56913188  0.13328012  0.91526651     0.04500
C1419       C  0.55295203  0.10833771  0.92742036    -0.11600
C1420       C  0.52938553  0.11654749  0.93703892     0.23800
C1421       C  0.52237145  0.14994254  0.93456403    -0.12100
C1422       C  0.54291492  0.17798463  0.92347432     0.05200
C1423       C  0.51512538  0.09345794  0.95055557     0.27600
C1424       C  0.47686568  0.05557537  0.95135492    -0.12800
C1425       C  0.45811318  0.04029552  0.96459418     0.05700
C1426       C  0.47531968  0.06496092  0.97690772    -0.08800
C1427       C  0.51592811  0.10090542  0.97602931     0.06500
C1428       C  0.53639840  0.11379249  0.96300002    -0.13100
Br1429     Br  0.48429215  0.15706498  0.94647545    -0.05200
Br1430     Br  0.59247191  0.11541778  0.90067549     0.00400
Br1431     Br  0.40631292  0.98813209  0.96525137     0.00900
Br1432     Br  0.59157954  0.16303486  0.96176338    -0.03600
Br1433     Br  0.54207575  0.22958571  0.92310277     0.01000
Br1434     Br  0.56351741  0.06336455  0.93106446    -0.02800
Br1435     Br  0.44780825  0.02772064  0.93417100    -0.03700
Br1436     Br  0.54188028  0.13739491  0.99186476     0.00300
C1437       C  0.34931650  0.01068035  0.00701983     0.01700
C1438       C  0.31444195  0.99418400  0.99766660     0.04500
C1439       C  0.27372795  0.97776294  0.00289012    -0.11600
C1440       C  0.26730795  0.97757784  0.01749219     0.23800
C1441       C  0.30113878  0.98918749  0.02692168    -0.12100
C1442       C  0.34229941  0.00678877  0.02170798     0.05200
C1443       C  0.22742151  0.97381256  0.02231434     0.27600
C1444       C  0.22486384  0.01038847  0.02314505    -0.12800
C1445       C  0.18560167  0.00760247  0.02403054     0.05700
C1446       C  0.14849613  0.96807696  0.02425987    -0.08800
C1447       C  0.15135861  0.93147150  0.02445990     0.06500
C1448       C  0.19077799  0.93441484  0.02351097    -0.13100
Br1449     Br  0.29097072  0.98355783  0.04692768    -0.05200
Br1450     Br  0.32231061  0.99849507  0.97749498     0.00400
Br1451     Br  0.18307640  0.05828493  0.02485921     0.00900
Br1452     Br  0.19475781  0.88461793  0.02301098    -0.03600
Br1453     Br  0.38892131  0.03037353  0.03469759     0.01000
Br1454     Br  0.22693526  0.95968541  0.98993833    -0.02800
Br1455     Br  0.27539250  0.06455947  0.02224766    -0.03700
Br1456     Br  0.10126157  0.87702133  0.02470597     0.00300
C1457       C  0.43479845  0.00747003  0.00473887     0.01700
C1458       C  0.47158603  0.02842409  0.01308689     0.04500
C1459       C  0.48918371  0.00644817  0.01929899    -0.11600
C1460       C  0.46527497  0.96264280  0.02035258     0.23800
C1461       C  0.42548473  0.94120054  0.01372355    -0.12100
C1462       C  0.41135492  0.96324213  0.00525937     0.05200
C1463       C  0.48030266  0.94030302  0.02969898     0.27600
C1464       C  0.49176015  0.91252859  0.02410963    -0.12800
C1465       C  0.50499045  0.89111682  0.03318240     0.05700
C1466       C  0.51491002  0.90312273  0.04756625    -0.08800
C1467       C  0.50559778  0.93322708  0.05283347     0.06500
C1468       C  0.48467957  0.94823294  0.04430849    -0.13100
Br1469     Br  0.38934582  0.88210192  0.01700376    -0.05200
Br1470     Br  0.49108048  0.08428215  0.01963639     0.00400
Br1471     Br  0.50389376  0.84254357  0.02580251     0.00900
Br1472     Br  0.46238610  0.98033602  0.05264393    -0.03600
Br1473     Br  0.35898621  0.93224116  0.99528103     0.01000
Br1474     Br  0.54579000  0.03687873  0.02668215    -0.02800
Br1475     Br  0.49117210  0.90515157  0.00393596    -0.03700
Br1476     Br  0.52690077  0.96032717  0.07065861     0.00300
C1477       C  0.45557973  0.55407278  0.57362445     0.01700
C1478       C  0.45378024  0.52374418  0.58316756     0.04500
C1479       C  0.42876458  0.51338823  0.59538520    -0.11600
C1480       C  0.40726079  0.53472454  0.59838157     0.23800
C1481       C  0.40454333  0.56049227  0.58800470    -0.12100
C1482       C  0.42647700  0.56797562  0.57533104     0.05200
C1483       C  0.39222737  0.53520224  0.61285974     0.27600
C1484       C  0.34904667  0.51662562  0.61538726    -0.12800
C1485       C  0.33493051  0.52740317  0.62751635     0.05700
C1486       C  0.36388803  0.55359854  0.63801995    -0.08800
C1487       C  0.40715335  0.56875540  0.63604128     0.06500
C1488       C  0.42124726  0.56093251  0.62329537    -0.13100
Br1489     Br  0.37621410  0.59108822  0.59201910    -0.05200
Br1490     Br  0.48858280  0.49971737  0.58065519     0.00400
Br1491     Br  0.27644131  0.51068654  0.62835184     0.00900
Br1492     Br  0.48065600  0.58851479  0.61962614    -0.03600
Br1493     Br  0.42289129  0.60495110  0.56162487     0.01000
Br1494     Br  0.42683904  0.47311839  0.60876472    -0.02800
Br1495     Br  0.30941638  0.47904206  0.60150252    -0.03700
Br1496     Br  0.44785191  0.60038459  0.65062636     0.00300
C1497       C  0.59423384  0.63185186  0.54793861     0.01700
C1498       C  0.63138321  0.64999852  0.55628461     0.04500
C1499       C  0.67048266  0.67591825  0.55008273    -0.11600
C1500       C  0.67290713  0.68582022  0.53564410     0.23800
C1501       C  0.63656780  0.66532556  0.52708441    -0.12100
C1502       C  0.59721288  0.63828214  0.53321611     0.05200
C1503       C  0.71236255  0.72189835  0.53017364     0.27600
C1504       C  0.71658902  0.76185350  0.52962428    -0.12800
C1505       C  0.75541821  0.79721748  0.52625209     0.05700
C1506       C  0.79123673  0.79350841  0.52448761    -0.08800
C1507       C  0.78669577  0.75324657  0.52477339     0.06500
C1508       C  0.74705146  0.71751925  0.52709747    -0.13100
Br1509     Br  0.64069378  0.67682741  0.50713686    -0.05200
Br1510     Br  0.62872220  0.64365483  0.57666344     0.00400
Br1511     Br  0.75900399  0.85051559  0.52362302     0.00900
Br1512     Br  0.74012198  0.66239965  0.52661796    -0.03600
Br1513     Br  0.54710182  0.61460589  0.52173952     0.01000
Br1514     Br  0.72053746  0.70061890  0.56168658    -0.02800
Br1515     Br  0.66965600  0.76850239  0.53433372    -0.03700
Br1516     Br  0.83500761  0.74672826  0.52339548     0.00300
C1517       C  0.37174842  0.25851655  0.50746543     0.01700
C1518       C  0.34746594  0.22043201  0.49972602     0.04500
C1519       C  0.30511701  0.19299636  0.50292771    -0.11600
C1520       C  0.28576332  0.20285192  0.51363322     0.23800
C1521       C  0.30811537  0.24120944  0.52075321    -0.12100
C1522       C  0.35063108  0.26933815  0.51755900     0.05200
C1523       C  0.24167156  0.17216749  0.51726165     0.27600
C1524       C  0.20872900  0.17268234  0.50985608    -0.12800
C1525       C  0.16736235  0.13940183  0.51138865     0.05700
C1526       C  0.15852850  0.10702996  0.52106507    -0.08800
C1527       C  0.19124193  0.10696923  0.52872506     0.06500
C1528       C  0.23286814  0.13914907  0.52666068    -0.13100
Br1529     Br  0.28028012  0.25384497  0.53540111    -0.05200
Br1530     Br  0.37043385  0.20352935  0.48456206     0.00400
Br1531     Br  0.12352213  0.13626876  0.49931552     0.00900
Br1532     Br  0.27812919  0.13643426  0.53586656    -0.03600
Br1533     Br  0.37786037  0.32163657  0.52742804     0.01000
Br1534     Br  0.27330264  0.14019950  0.49305835    -0.02800
Br1535     Br  0.22080182  0.21792003  0.49704154    -0.03700
Br1536     Br  0.17904077  0.06080065  0.54113946     0.00300
C1537       C  0.57528298  0.32403547  0.41280529     0.01700
C1538       C  0.58013207  0.36392744  0.41552975     0.04500
C1539       C  0.56617777  0.37189644  0.42839053    -0.11600
C1540       C  0.54707977  0.34031669  0.43866259     0.23800
C1541       C  0.54230605  0.30078197  0.43605800    -0.12100
C1542       C  0.55625084  0.29260383  0.42331969     0.05200
C1543       C  0.52992916  0.34692593  0.45204657     0.27600
C1544       C  0.55495005  0.36097949  0.46438077    -0.12800
C1545       C  0.53610876  0.35482317  0.47775429     0.05700
C1546       C  0.49212833  0.33498865  0.47893085    -0.08800
C1547       C  0.46755405  0.32474620  0.46639475     0.06500
C1548       C  0.48658813  0.33151102  0.45305310    -0.13100
Br1549     Br  0.51619740  0.25738168  0.45017229    -0.05200
Br1550     Br  0.60353542  0.40752627  0.40146930     0.00400
Br1551     Br  0.57008715  0.36958792  0.49467002     0.00900
Br1552     Br  0.45295135  0.31618651  0.43600673    -0.03600
Br1553     Br  0.55019009  0.23814143  0.42094733     0.01000
Br1554     Br  0.57238497  0.42587686  0.43196327    -0.02800
Br1555     Br  0.61479702  0.38601446  0.46295523    -0.03700
Br1556     Br  0.40727453  0.29614796  0.46711712     0.00300
C1557       C  0.45844468  0.35883869  0.50748638     0.01700
C1558       C  0.47495807  0.36424457  0.52153933     0.04500
C1559       C  0.48404031  0.40009104  0.52943520    -0.11600
C1560       C  0.48497030  0.43460722  0.52281460     0.23800
C1561       C  0.47465299  0.43180136  0.50832379    -0.12100
C1562       C  0.45845131  0.39334711  0.50107709     0.05200
C1563       C  0.49446594  0.47259272  0.53129703     0.27600
C1564       C  0.46322545  0.48301634  0.53345328    -0.12800
C1565       C  0.47249801  0.51937912  0.54106605     0.05700
C1566       C  0.51049602  0.54178701  0.54884700    -0.08800
C1567       C  0.54005183  0.52834059  0.54772491     0.06500
C1568       C  0.53378240  0.49701555  0.53797040    -0.13100
Br1569     Br  0.48303186  0.48093439  0.49836446    -0.05200
Br1570     Br  0.48458481  0.32328296  0.53074815     0.00400
Br1571     Br  0.43443725  0.53984265  0.53920821     0.00900
Br1572     Br  0.57952420  0.48808293  0.53363479    -0.03600
Br1573     Br  0.43361763  0.38792015  0.48280638     0.01000
Br1574     Br  0.49132569  0.40019861  0.54970443    -0.02800
Br1575     Br  0.40697907  0.44661311  0.52639958    -0.03700
Br1576     Br  0.58587267  0.54690937  0.56088152     0.00300
C1577       C  0.79887446  0.50694489  0.74040700     0.01700
C1578       C  0.81402233  0.52667369  0.75369707     0.04500
C1579       C  0.79021462  0.50968641  0.76600147    -0.11600
C1580       C  0.75296308  0.47078696  0.76544926     0.23800
C1581       C  0.73583478  0.45257869  0.75226782    -0.12100
C1582       C  0.75788000  0.47157139  0.73977019     0.05200
C1583       C  0.73706586  0.44589168  0.77866678     0.27600
C1584       C  0.75625908  0.42393871  0.78373614    -0.12800
C1585       C  0.74440924  0.40263827  0.79674586     0.05700
C1586       C  0.71074399  0.40079001  0.80461063    -0.08800
C1587       C  0.69224766  0.42418863  0.79942503     0.06500
C1588       C  0.70558328  0.44646873  0.78657648    -0.13100
Br1589     Br  0.68489411  0.39881617  0.75158044    -0.05200
Br1590     Br  0.87067105  0.57126840  0.75612137     0.00400
Br1591     Br  0.77712566  0.37822538  0.80329494     0.00900
Br1592     Br  0.68142201  0.47882415  0.77969017    -0.03600
Br1593     Br  0.73352866  0.44586647  0.72194436     0.01000
Br1594     Br  0.81135384  0.53627412  0.78412703    -0.02800
Br1595     Br  0.79947217  0.42335758  0.77255118    -0.03700
Br1596     Br  0.65041239  0.42950922  0.80982805     0.00300
C1597       C  0.12548607  0.60168839  0.68929158     0.01700
C1598       C  0.08750362  0.56326919  0.68880329     0.04500
C1599       C  0.04983242  0.56125127  0.69252417    -0.11600
C1600       C  0.04968952  0.59810221  0.69603284     0.23800
C1601       C  0.08693979  0.63709499  0.69494044    -0.12100
C1602       C  0.12478953  0.63895743  0.69145361     0.05200
C1603       C  0.01071421  0.59505172  0.70154933     0.27600
C1604       C  0.97948608  0.59202738  0.69226764    -0.12800
C1605       C  0.93892047  0.57922132  0.69729281     0.05700
C1606       C  0.92920524  0.56927648  0.71176528    -0.08800
C1607       C  0.96297393  0.57848973  0.72121832     0.06500
C1608       C  0.00325168  0.59097212  0.71611420    -0.13100
Br1609     Br  0.08625851  0.68759912  0.69894252    -0.05200
Br1610     Br  0.08703918  0.51416998  0.68199651     0.00400
Br1611     Br  0.89802782  0.57454087  0.68380531     0.00900
Br1612     Br  0.04787482  0.59949897  0.72895145    -0.03600
Br1613     Br  0.17557905  0.69249978  0.68988531     0.01000
Br1614     Br  0.99882912  0.50769620  0.69356696    -0.02800
Br1615     Br  0.99231481  0.60343922  0.67247637    -0.03700
Br1616     Br  0.95392709  0.56987894  0.74123089     0.00300
C1617       C  0.67689680  0.66819685  0.67130030     0.01700
C1618       C  0.64188643  0.65123595  0.66199511     0.04500
C1619       C  0.60106176  0.63153143  0.66735047    -0.11600
C1620       C  0.59474367  0.62872715  0.68204415     0.23800
C1621       C  0.62924408  0.64030867  0.69123733    -0.12100
C1622       C  0.67043009  0.66091812  0.68588864     0.05200
C1623       C  0.55446465  0.62309240  0.68746244     0.27600
C1624       C  0.55258045  0.65894072  0.69113376    -0.12800
C1625       C  0.51368999  0.65594156  0.69350215     0.05700
C1626       C  0.47616327  0.61734727  0.69192394    -0.08800
C1627       C  0.47808936  0.58092072  0.68921521     0.06500
C1628       C  0.51721354  0.58376911  0.68709957    -0.13100
Br1629     Br  0.62000641  0.63141016  0.71121883    -0.05200
Br1630     Br  0.64994013  0.65864488  0.64178295     0.00400
Br1631     Br  0.51191132  0.70491305  0.69904711     0.00900
Br1632     Br  0.51991135  0.53431865  0.68301623    -0.03600
Br1633     Br  0.71800488  0.68380887  0.69853736     0.01000
Br1634     Br  0.55417119  0.61263308  0.65445961    -0.02800
Br1635     Br  0.60323890  0.71303575  0.69204256    -0.03700
Br1636     Br  0.42709449  0.52755719  0.68741172     0.00300
C1637       C  0.80278122  0.74250157  0.64081372     0.01700
C1638       C  0.83443216  0.78506469  0.63874048     0.04500
C1639       C  0.85607083  0.79802789  0.62591943    -0.11600
C1640       C  0.84629368  0.76912073  0.61493004     0.23800
C1641       C  0.81802979  0.72641782  0.61730440    -0.12100
C1642       C  0.79601747  0.71310858  0.63012954     0.05200
C1643       C  0.86225387  0.78495517  0.60053999     0.27600
C1644       C  0.83637789  0.78984891  0.59066254    -0.12800
C1645       C  0.85318055  0.81133892  0.57793331     0.05700
C1646       C  0.89706009  0.83171065  0.57554754    -0.08800
C1647       C  0.92255449  0.82524275  0.58538640     0.06500
C1648       C  0.90454548  0.80015272  0.59740478    -0.13100
Br1649     Br  0.80730923  0.68681071  0.60240715    -0.05200
Br1650     Br  0.84582870  0.82774971  0.65269083     0.00400
Br1651     Br  0.81477840  0.81109091  0.56387035     0.00900
Br1652     Br  0.93796439  0.78789922  0.61014943    -0.03600
Br1653     Br  0.75247511  0.65571957  0.63173148     0.01000
Br1654     Br  0.89684989  0.85649870  0.62292723    -0.02800
Br1655     Br  0.77808058  0.76894289  0.59494981    -0.03700
Br1656     Br  0.98282627  0.85358622  0.58374915     0.00300
C1657       C  0.76601414  0.67325160  0.66677815     0.01700
C1658       C  0.73858703  0.63007302  0.66967064     0.04500
C1659       C  0.75010806  0.60890276  0.67952046    -0.11600
C1660       C  0.79213009  0.62663554  0.68403495     0.23800
C1661       C  0.82161679  0.66661848  0.67898466    -0.12100
C1662       C  0.80806794  0.69124972  0.67184700     0.05200
C1663       C  0.80551977  0.60386553  0.69404777     0.27600
C1664       C  0.82428032  0.62178926  0.70720848    -0.12800
C1665       C  0.84307231  0.60397451  0.71555258     0.05700
C1666       C  0.83689253  0.56422677  0.71223871    -0.08800
C1667       C  0.81386527  0.54402965  0.69981082     0.06500
C1668       C  0.80172158  0.56535420  0.69023257    -0.13100
Br1669     Br  0.88089604  0.68791321  0.68194652    -0.05200
Br1670     Br  0.68787682  0.59666032  0.65898476     0.00400
Br1671     Br  0.88091699  0.63664842  0.73039873     0.00900
Br1672     Br  0.78468456  0.54400574  0.67126932    -0.03600
Br1673     Br  0.84720118  0.75018303  0.67133437     0.01000
Br1674     Br  0.70730832  0.55650589  0.68735040    -0.02800
Br1675     Br  0.82413697  0.67078108  0.71394007    -0.03700
Br1676     Br  0.80363526  0.48921697  0.69477008     0.00300
C1677       C  0.24371076  0.96624514  0.86908946     0.01700
C1678       C  0.27280593  0.97379797  0.88014642     0.04500
C1679       C  0.31642091  0.99824519  0.87774807    -0.11600
C1680       C  0.33152301  0.01571293  0.86434873     0.23800
C1681       C  0.30309373  0.00402849  0.85296093    -0.12100
C1682       C  0.25950756  0.97970351  0.85530436     0.05200
C1683       C  0.37509259  0.05233771  0.86292425     0.27600
C1684       C  0.38211374  0.09273660  0.86552836    -0.12800
C1685       C  0.42283545  0.12793906  0.86485845     0.05700
C1686       C  0.45745316  0.12349962  0.86110178    -0.08800
C1687       C  0.45033080  0.08262105  0.85885259     0.06500
C1688       C  0.40930057  0.04739459  0.85952522    -0.13100
Br1689     Br  0.32419816  0.02465007  0.83432879    -0.05200
Br1690     Br  0.25381973  0.95607756  0.89908530     0.00400
Br1691     Br  0.42987645  0.18177476  0.86953650     0.00900
Br1692     Br  0.39966173  0.99214936  0.85586218    -0.03600
Br1693     Br  0.22182626  0.96811166  0.83962063     0.01000
Br1694     Br  0.35588328  0.01140682  0.89309567    -0.02800
Br1695     Br  0.33515923  0.09973532  0.87000007    -0.03700
Br1696     Br  0.49696607  0.07383199  0.85660156     0.00300
C1697       C  0.12334303  0.92408306  0.89922465     0.01700
C1698       C  0.08569767  0.88582624  0.90166769     0.04500
C1699       C  0.06613421  0.87730624  0.91505178    -0.11600
C1700       C  0.08102158  0.90868544  0.92554922     0.23800
C1701       C  0.11671280  0.94772907  0.92277112    -0.12100
C1702       C  0.13935358  0.95433457  0.91025832     0.05200
C1703       C  0.05990229  0.90202559  0.93954384     0.27600
C1704       C  0.02211803  0.90248327  0.94062961    -0.12800
C1705       C  0.00645780  0.90389775  0.95400970     0.05700
C1706       C  0.03025451  0.90868854  0.96637023    -0.08800
C1707       C  0.06707578  0.90655144  0.96535565     0.06500
C1708       C  0.08100937  0.90177494  0.95205147    -0.13100
Br1709     Br  0.13336591  0.99343470  0.93590385    -0.05200
Br1710     Br  0.05843383  0.84635673  0.88655548     0.00400
Br1711     Br  0.95382468  0.90262249  0.95521519     0.00900
Br1712     Br  0.13044602  0.89707304  0.95083338    -0.03600
Br1713     Br  0.19302089  0.00540484  0.90883888     0.01000
Br1714     Br  0.01873017  0.82281093  0.91900521    -0.02800
Br1715     Br  0.99379132  0.90539917  0.92381628    -0.03700
Br1716     Br  0.09848229  0.91032734  0.98222281     0.00300
C1717       C  0.02824915  0.59775554  0.83966905     0.01700
C1718       C  0.02180885  0.59545029  0.85436756     0.04500
C1719       C  0.98105548  0.57080675  0.85981517    -0.11600
C1720       C  0.94665616  0.54895018  0.85056831     0.23800
C1721       C  0.95265293  0.55360190  0.83589236    -0.12100
C1722       C  0.99331304  0.57637354  0.83046288     0.05200
C1723       C  0.90608230  0.51428503  0.85573403     0.27600
C1724       C  0.89883027  0.47342333  0.85460274    -0.12800
C1725       C  0.85789011  0.43911351  0.85526577     0.05700
C1726       C  0.82401029  0.44495613  0.85886961    -0.08800
C1727       C  0.83208847  0.48623487  0.86096363     0.06500
C1728       C  0.87289295  0.52076435  0.85908655    -0.13100
Br1729     Br  0.90493348  0.52542379  0.82323455    -0.05200
Br1730     Br  0.06902766  0.62196514  0.86707515     0.00400
Br1731     Br  0.84963764  0.38546938  0.84959414     0.00900
Br1732     Br  0.88330221  0.57713744  0.86014919    -0.03600
Br1733     Br  0.00071032  0.57504315  0.81037978     0.01000
Br1734     Br  0.97242855  0.56403123  0.87989037    -0.02800
Br1735     Br  0.94544430  0.46488062  0.85118270    -0.03700
Br1736     Br  0.78686688  0.49651966  0.86437109     0.00300
C1737       C  0.23077727  0.65844316  0.74451485     0.01700
C1738       C  0.22093632  0.69053136  0.74421142     0.04500
C1739       C  0.20959670  0.70291328  0.75668311    -0.11600
C1740       C  0.20259103  0.67968755  0.76921314     0.23800
C1741       C  0.20855014  0.64492077  0.76918031    -0.12100
C1742       C  0.22336863  0.63492246  0.75702352     0.05200
C1743       C  0.18718472  0.68981422  0.78232692     0.27600
C1744       C  0.21264119  0.70288803  0.79451553    -0.12800
C1745       C  0.19403324  0.69580120  0.80793093     0.05700
C1746       C  0.15088629  0.68283311  0.80925005    -0.08800
C1747       C  0.12868082  0.68060104  0.79673332     0.06500
C1748       C  0.14520548  0.67999830  0.78342557    -0.13100
Br1749     Br  0.19536766  0.60999915  0.78574728    -0.05200
Br1750     Br  0.21495082  0.71178033  0.72638866     0.00400
Br1751     Br  0.22694763  0.69672840  0.82385658     0.00900
Br1752     Br  0.10846187  0.65992649  0.76714480    -0.03600
Br1753     Br  0.23227233  0.58794793  0.75751190     0.01000
Br1754     Br  0.20442899  0.75208532  0.75663033    -0.02800
Br1755     Br  0.27227393  0.72560916  0.79273762    -0.03700
Br1756     Br  0.07392421  0.67386587  0.79765523     0.00300
C1757       C  0.10285042  0.69233225  0.83729950     0.01700
C1758       C  0.07143597  0.70344537  0.83832371     0.04500
C1759       C  0.07755197  0.73648024  0.84733822    -0.11600
C1760       C  0.11724702  0.76305181  0.85354989     0.23800
C1761       C  0.14846507  0.75230227  0.85236400    -0.12100
C1762       C  0.13925338  0.71472019  0.84578772     0.05200
C1763       C  0.12678409  0.80269837  0.86089100     0.27600
C1764       C  0.12720629  0.83537016  0.85312762    -0.12800
C1765       C  0.13669389  0.87283136  0.85988342     0.05700
C1766       C  0.15325818  0.88140537  0.87383872    -0.08800
C1767       C  0.15133252  0.84823027  0.88180206     0.06500
C1768       C  0.13631380  0.80849881  0.87551084    -0.13100
Br1769     Br  0.20446499  0.78916330  0.85944166    -0.05200
Br1770     Br  0.02013676  0.67507627  0.82758549     0.00400
Br1771     Br  0.12022908  0.90873040  0.85060363     0.00900
Br1772     Br  0.12733842  0.76155848  0.88695592    -0.03600
Br1773     Br  0.17108913  0.68937458  0.85162837     0.01000
Br1774     Br  0.03120865  0.74445186  0.85170921    -0.02800
Br1775     Br  0.11640793  0.82991108  0.83301912    -0.03700
Br1776     Br  0.16591629  0.85604205  0.90151502     0.00300
C1777       C  0.44775082  0.12746474  0.23271107     0.01700
C1778       C  0.49075456  0.15833944  0.23469351     0.04500
C1779       C  0.50477874  0.18038818  0.24750444    -0.11600
C1780       C  0.47599482  0.17361172  0.25819364     0.23800
C1781       C  0.43282481  0.14865852  0.25538248    -0.12100
C1782       C  0.41862519  0.12486529  0.24284402     0.05200
C1783       C  0.49146487  0.18781058  0.27285358     0.27600
C1784       C  0.49172221  0.15929143  0.28265284    -0.12800
C1785       C  0.50930285  0.17281902  0.29620998     0.05700
C1786       C  0.52996215  0.21600510  0.29979615    -0.08800
C1787       C  0.52928393  0.24446911  0.28980945     0.06500
C1788       C  0.50843307  0.22987371  0.27671138    -0.13100
Br1789     Br  0.39364672  0.14458386  0.26947356    -0.05200
Br1790     Br  0.53236631  0.16691002  0.22079632     0.00400
Br1791     Br  0.50313158  0.13069628  0.30968799     0.00900
Br1792     Br  0.50315475  0.26734333  0.26378218    -0.03600
Br1793     Br  0.35999072  0.08492439  0.24106158     0.01000
Br1794     Br  0.56410158  0.21658522  0.25103952    -0.02800
Br1795     Br  0.46888140  0.10142697  0.27728189    -0.03700
Br1796     Br  0.55982037  0.30415294  0.29297480     0.00300
C1797       C  0.37755570  0.99497297  0.20413430     0.01700
C1798       C  0.36029787  0.95965331  0.21312902     0.04500
C1799       C  0.34281702  0.91936450  0.20746697    -0.11600
C1800       C  0.34188812  0.91376405  0.19275654     0.23800
C1801       C  0.35545479  0.94856741  0.18369920    -0.12100
C1802       C  0.37341357  0.98924090  0.18940316     0.05200
C1803       C  0.33270272  0.87240992  0.18729893     0.27600
C1804       C  0.36634861  0.86611610  0.18429451    -0.12800
C1805       C  0.35886335  0.82552715  0.18195928     0.05700
C1806       C  0.31830044  0.79076837  0.18354309    -0.08800
C1807       C  0.28411199  0.79711872  0.18534836     0.06500
C1808       C  0.29134783  0.83801137  0.18716055    -0.13100
Br1809     Br  0.35320765  0.94073370  0.16355442    -0.05200
Br1810     Br  0.36418282  0.96664764  0.23346153     0.00400
Br1811     Br  0.40380774  0.81735839  0.17596190     0.00900
Br1812     Br  0.24520561  0.84698563  0.19054601    -0.03600
Br1813     Br  0.39615030  0.03721212  0.17713480     0.01000
Br1814     Br  0.32493911  0.87229243  0.22004053    -0.02800
Br1815     Br  0.42325910  0.91259301  0.18465609    -0.03700
Br1816     Br  0.22773026  0.74995456  0.18598900     0.00300
C1817       C  0.08405104  0.01641858  0.07812307     0.01700
C1818       C  0.07259239  0.03196861  0.08979070     0.04500
C1819       C  0.09985414  0.04902589  0.10147964    -0.11600
C1820       C  0.13851651  0.05015423  0.10179590     0.23800
C1821       C  0.14960622  0.03364667  0.09040363    -0.12100
C1822       C  0.12278863  0.01733361  0.07851721     0.05200
C1823       C  0.16845556  0.07266679  0.11359074     0.27600
C1824       C  0.19508096  0.11617572  0.11254167    -0.12800
C1825       C  0.21127124  0.14038074  0.12485117     0.05700
C1826       C  0.20212907  0.12099530  0.13830824    -0.08800
C1827       C  0.18090778  0.07702159  0.13908542     0.06500
C1828       C  0.16398432  0.05284995  0.12671782    -0.13100
Br1829     Br  0.20226031  0.03481281  0.09097793    -0.05200
Br1830     Br  0.01933206  0.02977322  0.09003218     0.00400
Br1831     Br  0.24119313  0.20060057  0.12327442     0.00900
Br1832     Br  0.13122738  0.99279826  0.12777830    -0.03600
Br1833     Br  0.14137406  0.00002793  0.06231463     0.01000
Br1834     Br  0.08496028  0.07250513  0.11698513    -0.02800
Br1835     Br  0.20524912  0.14284295  0.09428962    -0.03700
Br1836     Br  0.17074322  0.05001247  0.15716275     0.00300
C1837       C  0.25202369  0.23158985  0.17553615     0.01700
C1838       C  0.23456242  0.24064005  0.18733825     0.04500
C1839       C  0.25101185  0.28210444  0.19197641    -0.11600
C1840       C  0.28348695  0.31525502  0.18448403     0.23800
C1841       C  0.30396607  0.30647288  0.17379254    -0.12100
C1842       C  0.28881436  0.26477670  0.16950219     0.05200
C1843       C  0.28829679  0.35756286  0.18550434     0.27600
C1844       C  0.25908420  0.36474619  0.17834772    -0.12800
C1845       C  0.25899367  0.40218360  0.18036712     0.05700
C1846       C  0.29130076  0.43536758  0.18846439    -0.08800
C1847       C  0.32234503  0.42871848  0.19496243     0.06500
C1848       C  0.31980207  0.38945408  0.19385261    -0.13100
Br1849     Br  0.34909096  0.35223772  0.16373960    -0.05200
Br1850     Br  0.18349497  0.19815881  0.19584869     0.00400
Br1851     Br  0.21209921  0.40508715  0.17239959     0.00900
Br1852     Br  0.35979049  0.37908216  0.20350653    -0.03600
Br1853     Br  0.31457333  0.25503739  0.15364948     0.01000
Br1854     Br  0.22509773  0.29454191  0.20734243    -0.02800
Br1855     Br  0.21934469  0.32294704  0.16535629    -0.03700
Br1856     Br  0.37039691  0.47327646  0.20460133     0.00300
C1857       C  0.25618621  0.14887791  0.16766256     0.01700
C1858       C  0.28798639  0.14516655  0.16077066     0.04500
C1859       C  0.30990792  0.12864940  0.16811876    -0.11600
C1860       C  0.30458066  0.12130375  0.18280915     0.23800
C1861       C  0.27358411  0.12583593  0.18963758    -0.12100
C1862       C  0.24660826  0.13439870  0.18171098     0.05200
C1863       C  0.33025725  0.10750620  0.19099610     0.27600
C1864       C  0.31129287  0.06746071  0.19720396    -0.12800
C1865       C  0.33491808  0.05595990  0.20596330     0.05700
C1866       C  0.37920579  0.08199052  0.20700265    -0.08800
C1867       C  0.39820328  0.12040989  0.19956320     0.06500
C1868       C  0.37369611  0.13449949  0.19270797    -0.13100
Br1869     Br  0.26810427  0.12116643  0.20990982    -0.05200
Br1870     Br  0.30237749  0.16186873  0.14146292     0.00400
Br1871     Br  0.30466804  0.00587856  0.21702247     0.00900
Br1872     Br  0.39983736  0.19120334  0.18575296    -0.03600
Br1873     Br  0.19173233  0.11543789  0.18901464     0.01000
Br1874     Br  0.34609442  0.11453570  0.15800756    -0.02800
Br1875     Br  0.25290596  0.02763220  0.19331831    -0.03700
Br1876     Br  0.45750778  0.15119845  0.19652095     0.00300
C1877       C  0.33016860  0.88852747  0.34001217     0.01700
C1878       C  0.33277456  0.90018018  0.35427116     0.04500
C1879       C  0.35895417  0.94228686  0.35836485    -0.11600
C1880       C  0.38456193  0.97249173  0.34831581     0.23800
C1881       C  0.38144145  0.96095296  0.33401040    -0.12100
C1882       C  0.35311891  0.91964270  0.32982084     0.05200
C1883       C  0.41579691  0.01614645  0.35256010     0.27600
C1884       C  0.41014650  0.04938650  0.34819632    -0.12800
C1885       C  0.44396765  0.09076533  0.34878897     0.05700
C1886       C  0.48142287  0.09966405  0.35573566    -0.08800
C1887       C  0.48537290  0.06685566  0.36159037     0.06500
C1888       C  0.45371442  0.02508303  0.35925929    -0.13100
Br1889     Br  0.41815141  0.00119824  0.32019917    -0.05200
Br1890     Br  0.30092924  0.85804291  0.36814869     0.00400
Br1891     Br  0.44039767  0.13421330  0.33875008     0.00900
Br1892     Br  0.46387784  0.98046339  0.36419399    -0.03600
Br1893     Br  0.34577293  0.90651165  0.31000460     0.01000
Br1894     Br  0.36053808  0.95852655  0.37774266    -0.02800
Br1895     Br  0.35642963  0.03792663  0.34098614    -0.03700
Br1896     Br  0.53467401  0.07923308  0.37248865     0.00300
C1897       C  0.24749794  0.68100139  0.23956992     0.01700
C1898       C  0.23821606  0.65900831  0.25245721     0.04500
C1899       C  0.23625438  0.67797696  0.26503965    -0.11600
C1900       C  0.24390046  0.71925828  0.26487479     0.23800
C1901       C  0.25039199  0.74028309  0.25188717    -0.12100
C1902       C  0.25227407  0.72126236  0.23929194     0.05200
C1903       C  0.25204962  0.74254948  0.27842793     0.27600
C1904       C  0.21911085  0.73693646  0.28714860    -0.12800
C1905       C  0.22753304  0.75496877  0.30080777     0.05700
C1906       C  0.26953052  0.78013394  0.30578465    -0.08800
C1907       C  0.30250332  0.78875472  0.29610040     0.06500
C1908       C  0.29362272  0.76886495  0.28286584    -0.13100
Br1909     Br  0.25995243  0.79647093  0.25159317    -0.05200
Br1910     Br  0.23338096  0.60492452  0.25329999     0.00400
Br1911     Br  0.18022811  0.74217779  0.31232369     0.00900
Br1912     Br  0.33890230  0.77558340  0.27093191    -0.03600
Br1913     Br  0.26292880  0.75111351  0.22172807     0.01000
Br1914     Br  0.22666028  0.64867852  0.28274257    -0.02800
Br1915     Br  0.16219432  0.70270743  0.28036553    -0.03700
Br1916     Br  0.36114866  0.82782385  0.30016952     0.00300
C1917       C  0.02040008  0.78612416  0.40340378     0.01700
C1918       C  0.03885101  0.82988473  0.40269868     0.04500
C1919       C  0.04358979  0.85322149  0.41505232    -0.11600
C1920       C  0.02920098  0.83274982  0.42814824     0.23800
C1921       C  0.01428625  0.78958312  0.42908006    -0.12100
C1922       C  0.01022491  0.76645852  0.41683278     0.05200
C1923       C  0.02528834  0.85499689  0.44064250     0.27600
C1924       C  0.05488750  0.86846504  0.45175264    -0.12800
C1925       C  0.04808076  0.88422704  0.46435976     0.05700
C1926       C  0.01144517  0.88684439  0.46595639    -0.08800
C1927       C  0.98271294  0.87498202  0.45452305     0.06500
C1928       C  0.98952646  0.85895519  0.44199444    -0.13100
Br1929     Br  0.99502447  0.76127648  0.44697868    -0.05200
Br1930     Br  0.05259209  0.85681554  0.38453954     0.00400
Br1931     Br  0.08806122  0.89955370  0.47969255     0.00900
Br1932     Br  0.94914283  0.84126338  0.42671308    -0.03600
Br1933     Br  0.98438105  0.70631459  0.41822680     0.01000
Br1934     Br  0.06659247  0.91274067  0.41394431    -0.02800
Br1935     Br  0.10423444  0.86396380  0.44974435    -0.03700
Br1936     Br  0.93454168  0.88197051  0.45565342     0.00300
C1937       C  0.95812718  0.67539412  0.36555542     0.01700
C1938       C  0.92387595  0.66367404  0.35604524     0.04500
C1939       C  0.89602546  0.62132714  0.35291558    -0.11600
C1940       C  0.90442454  0.59065393  0.35793989     0.23800
C1941       C  0.94258167  0.60281637  0.36497041    -0.12100
C1942       C  0.96882107  0.64482867  0.36917191     0.05200
C1943       C  0.87058694  0.54596654  0.35772645     0.27600
C1944       C  0.84721102  0.52792723  0.37002162    -0.12800
C1945       C  0.81462104  0.48593832  0.37003913     0.05700
C1946       C  0.80191697  0.46257516  0.35727047    -0.08800
C1947       C  0.82552612  0.48131862  0.34482735     0.06500
C1948       C  0.86043733  0.52227932  0.34527151    -0.13100
Br1949     Br  0.95597767  0.56051158  0.37015574    -0.05200
Br1950     Br  0.91009794  0.70429031  0.34905551     0.00400
Br1951     Br  0.79032036  0.46091380  0.38804344     0.00900
Br1952     Br  0.89422815  0.54691037  0.32871141    -0.03600
Br1953     Br  0.01485666  0.65756400  0.38168555     0.01000
Br1954     Br  0.84320786  0.60470651  0.34349953    -0.02800
Br1955     Br  0.85878090  0.56169218  0.38680161    -0.03700
Br1956     Br  0.81010013  0.45332554  0.32670863     0.00300
C1957       C  0.04720400  0.75796830  0.37400735     0.01700
C1958       C  0.08342883  0.76294464  0.38115337     0.04500
C1959       C  0.12143948  0.77691387  0.37376174    -0.11600
C1960       C  0.12302889  0.78246395  0.35895530     0.23800
C1961       C  0.08718392  0.77763495  0.35189110    -0.12100
C1962       C  0.05129051  0.76922075  0.35955890     0.05200
C1963       C  0.16192741  0.79265156  0.35084987     0.27600
C1964       C  0.18621300  0.83173293  0.34412983    -0.12800
C1965       C  0.22132216  0.83992365  0.33588664     0.05700
C1966       C  0.23562116  0.81104824  0.33541580    -0.08800
C1967       C  0.21311655  0.77338420  0.34343483     0.06500
C1968       C  0.17487764  0.76303316  0.34992763    -0.13100
Br1969     Br  0.08622239  0.78065784  0.33154606    -0.05200
Br1970     Br  0.08219763  0.74950974  0.40081224     0.00400
Br1971     Br  0.24951178  0.89096275  0.32524346     0.00900
Br1972     Br  0.13897626  0.70713030  0.35710378    -0.03600
Br1973     Br  0.01136163  0.78055686  0.35066318     0.01000
Br1974     Br  0.17179211  0.78857308  0.38391307    -0.02800
Br1975     Br  0.17211243  0.87473116  0.34660980    -0.03700
Br1976     Br  0.23337407  0.73505015  0.34626677     0.00300
C1977       C  0.31744982  0.30986503  0.04573417     0.01700
C1978       C  0.28810601  0.31937015  0.03969074     0.04500
C1979       C  0.25220537  0.28797964  0.03270902    -0.11600
C1980       C  0.24825343  0.24885708  0.03035136     0.23800
C1981       C  0.28198244  0.24281489  0.03334802    -0.12100
C1982       C  0.31552534  0.27223370  0.04165743     0.05200
C1983       C  0.20653132  0.21130378  0.02855812     0.27600
C1984       C  0.18732013  0.18686300  0.04059627    -0.12800
C1985       C  0.15229192  0.14686051  0.03910870     0.05700
C1986       C  0.13463050  0.13194493  0.02558121    -0.08800
C1987       C  0.15306583  0.15715619  0.01354779     0.06500
C1988       C  0.18916215  0.19682635  0.01507541    -0.13100
Br1989     Br  0.27770954  0.19030903  0.02827461    -0.05200
Br1990     Br  0.29349002  0.37305290  0.04231602     0.00400
Br1991     Br  0.13184095  0.11157252  0.05565017     0.00900
Br1992     Br  0.21543155  0.23122445  0.99879034    -0.03600
Br1993     Br  0.35415660  0.25668634  0.04904144     0.01000
Br1994     Br  0.20579886  0.29609947  0.02825865    -0.02800
Br1995     Br  0.21031444  0.20765619  0.05921992    -0.03700
Br1996     Br  0.12935388  0.13796684  0.99495424     0.00300
C1997       C  0.36066686  0.54234803  0.13696518     0.01700
C1998       C  0.36772254  0.50916950  0.14012006     0.04500
C1999       C  0.37644311  0.48894334  0.12923637    -0.11600
C2000       C  0.37845953  0.50185098  0.11508828     0.23800
C2001       C  0.37363121  0.53640245  0.11202757    -0.12100
C2002       C  0.36335282  0.55558106  0.12283997     0.05200
C2003       C  0.37693012  0.47417660  0.10340692     0.27600
C2004       C  0.41304951  0.47380917  0.09897882    -0.12800
C2005       C  0.40953511  0.44344180  0.08920036     0.05700
C2006       C  0.36997945  0.41381560  0.08360844    -0.08800
C2007       C  0.33441969  0.41658166  0.08726697     0.06500
C2008       C  0.33780457  0.44599945  0.09726618    -0.13100
Br2009     Br  0.37844142  0.55548009  0.09278533    -0.05200
Br2010     Br  0.36266140  0.48946599  0.15927799     0.00400
Br2011     Br  0.45848783  0.44112949  0.08408181     0.00900
Br2012     Br  0.28791065  0.44563490  0.10338518    -0.03600
Br2013     Br  0.34685132  0.59547508  0.11794604     0.01000
Br2014     Br  0.38300917  0.44171430  0.13358106    -0.02800
Br2015     Br  0.46690267  0.51373568  0.10683068    -0.03700
Br2016     Br  0.27991092  0.37865973  0.07920432     0.00300
C2017       C  0.59466535  0.45885007  0.97467490     0.01700
C2018       C  0.59134749  0.47178203  0.96085257     0.04500
C2019       C  0.58254584  0.44477725  0.94937186    -0.11600
C2020       C  0.57716246  0.40491556  0.95164279     0.23800
C2021       C  0.57520680  0.39012073  0.96549289    -0.12100
C2022       C  0.58467985  0.41733738  0.97702187     0.05200
C2023       C  0.58268210  0.38283628  0.93965274     0.27600
C2024       C  0.54880057  0.35640312  0.93085837    -0.12800
C2025       C  0.55544462  0.33847674  0.91880136     0.05700
C2026       C  0.59667823  0.34772334  0.91540189    -0.08800
C2027       C  0.62966504  0.37107424  0.92516731     0.06500
C2028       C  0.62294327  0.38965621  0.93692721    -0.13100
Br2029     Br  0.56426780  0.33403010  0.96839524    -0.05200
Br2030     Br  0.60432843  0.52856066  0.95734758     0.00400
Br2031     Br  0.50701311  0.30085972  0.90755836     0.00900
Br2032     Br  0.66945794  0.42570444  0.94920637    -0.03600
Br2033     Br  0.59081040  0.39982895  0.99559329     0.01000
Br2034     Br  0.58292342  0.46402859  0.93034943    -0.02800
Br2035     Br  0.49351117  0.34582690  0.93534642    -0.03700
Br2036     Br  0.68329660  0.37442471  0.92361458     0.00300
C2037       C  0.65334199  0.57150319  0.01147241     0.01700
C2038       C  0.68703048  0.58578705  0.02133777     0.04500
C2039       C  0.70516009  0.62621614  0.02695793    -0.11600
C2040       C  0.69666823  0.65521838  0.02047691     0.23800
C2041       C  0.66152698  0.64098928  0.01151551    -0.12100
C2042       C  0.63779180  0.59827278  0.00796440     0.05200
C2043       C  0.73138444  0.69920834  0.01977914     0.27600
C2044       C  0.73179387  0.73048783  0.02813166    -0.12800
C2045       C  0.76699837  0.77126561  0.02807373     0.05700
C2046       C  0.80376306  0.77996022  0.02055526    -0.08800
C2047       C  0.80296993  0.74750587  0.01237336     0.06500
C2048       C  0.76614248  0.70846939  0.01136559    -0.13100
Br2049     Br  0.65051336  0.68087870  0.00224737    -0.05200
Br2050     Br  0.71730734  0.55659537  0.02431344     0.00400
Br2051     Br  0.76252763  0.81427037  0.03799706     0.00900
Br2052     Br  0.76341202  0.66693198  0.99842094    -0.03600
Br2053     Br  0.58922250  0.57919026  0.99597488     0.01000
Br2054     Br  0.74847902  0.64505210  0.04131063    -0.02800
Br2055     Br  0.68410561  0.71680058  0.03980267    -0.03700
Br2056     Br  0.85228889  0.75306326  0.00328597     0.00300
C2057       C  0.57383662  0.48158501  0.00555171     0.01700
C2058       C  0.53252401  0.46754065  0.00040424     0.04500
C2059       C  0.49797380  0.44738749  0.00962982    -0.11600
C2060       C  0.50465291  0.44697533  0.02428463     0.23800
C2061       C  0.54557671  0.46218042  0.02940258    -0.12100
C2062       C  0.57848965  0.47423302  0.01991844     0.05200
C2063       C  0.46890455  0.42841252  0.03431011     0.27600
C2064       C  0.44758773  0.44972117  0.03777553    -0.12800
C2065       C  0.41356374  0.43162009  0.04724092     0.05700
C2066       C  0.40241374  0.39329486  0.05388204    -0.08800
C2067       C  0.42860430  0.37624044  0.05210334     0.06500
C2068       C  0.45885470  0.39119788  0.04147944    -0.13100
Br2069     Br  0.55704795  0.46688282  0.04945196    -0.05200
Br2070     Br  0.52125516  0.47658988  0.98130742     0.00400
Br2071     Br  0.38556622  0.46146192  0.05209550     0.00900
Br2072     Br  0.48634819  0.36036548  0.03682867    -0.03600
Br2073     Br  0.62577159  0.47048797  0.02620435     0.01000
Br2074     Br  0.44133493  0.41907342  0.00228099    -0.02800
Br2075     Br  0.46645549  0.50449770  0.03002135    -0.03700
Br2076     Br  0.42929041  0.33872932  0.06609123     0.00300
C2077       C  0.11367122  0.47393613  0.56582123     0.01700
C2078       C  0.15349397  0.50975200  0.56876355     0.04500
C2079       C  0.16350180  0.52702853  0.58241168    -0.11600
C2080       C  0.13380768  0.50973498  0.59320508     0.23800
C2081       C  0.09237933  0.47887233  0.58985985    -0.12100
C2082       C  0.08220158  0.46106389  0.57621488     0.05200
C2083       C  0.14782326  0.51996705  0.60820129     0.27600
C2084       C  0.15587421  0.49260883  0.61611010    -0.12800
C2085       C  0.17107781  0.50257728  0.63007392     0.05700
C2086       C  0.18442554  0.54301876  0.63569124    -0.08800
C2087       C  0.17419554  0.56972921  0.62778690     0.06500
C2088       C  0.15511978  0.55748514  0.61430419    -0.13100
Br2089     Br  0.05073153  0.45857327  0.60450433    -0.05200
Br2090     Br  0.19719426  0.53287365  0.55481180     0.00400
Br2091     Br  0.16882652  0.45807347  0.64143563     0.00900
Br2092     Br  0.14014000  0.59272012  0.60370840    -0.03600
Br2093     Br  0.02618170  0.41630828  0.57278083     0.01000
Br2094     Br  0.21963233  0.57141612  0.58680063    -0.02800
Br2095     Br  0.14839705  0.44218969  0.60739919    -0.03700
Br2096     Br  0.18565584  0.62370146  0.63460118     0.00300
C2097       C  0.00575694  0.13735984  0.52388113     0.01700
C2098       C  0.97354921  0.14620851  0.52053942     0.04500
C2099       C  0.98122887  0.18745370  0.52155307    -0.11600
C2100       C  0.02090307  0.22009016  0.52580867     0.23800
C2101       C  0.05328175  0.21172309  0.52878414    -0.12100
C2102       C  0.04590768  0.17073714  0.52784204     0.05200
C2103       C  0.02798372  0.26243233  0.52886495     0.27600
C2104       C  0.04219643  0.29351580  0.51831345    -0.12800
C2105       C  0.05771964  0.33565728  0.52207683     0.05700
C2106       C  0.06055657  0.34679796  0.53639651    -0.08800
C2107       C  0.04413727  0.31514039  0.54682621     0.06500
C2108       C  0.02634387  0.27304359  0.54297060    -0.13100
Br2109     Br  0.10770894  0.25671324  0.53475962    -0.05200
Br2110     Br  0.91774829  0.10209639  0.51558419     0.00400
Br2111     Br  0.07811789  0.37865154  0.50786157     0.00900
Br2112     Br  0.00255118  0.22979918  0.55716948    -0.03600
Br2113     Br  0.09189126  0.16156402  0.53191634     0.01000
Br2114     Br  0.93699579  0.19940432  0.51784640    -0.02800
Br2115     Br  0.04326797  0.27863356  0.49894040    -0.03700
Br2116     Br  0.04929575  0.32949921  0.56662606     0.00300
C2117       C  0.92995381  0.58098449  0.49936431     0.01700
C2118       C  0.89452869  0.58397935  0.50306460     0.04500
C2119       C  0.89969813  0.61949828  0.51011070    -0.11600
C2120       C  0.94003135  0.65147004  0.51410811     0.23800
C2121       C  0.97456632  0.64566885  0.51233806    -0.12100
C2122       C  0.96975021  0.61090654  0.50467601     0.05200
C2123       C  0.94693183  0.69394410  0.51692378     0.27600
C2124       C  0.95923538  0.72259913  0.50566045    -0.12800
C2125       C  0.96299331  0.76182295  0.50760573     0.05700
C2126       C  0.95234499  0.77216461  0.52062875    -0.08800
C2127       C  0.94024345  0.74356463  0.53198910     0.06500
C2128       C  0.93809896  0.70473820  0.53016531    -0.13100
Br2129     Br  0.02919929  0.68836385  0.51885828    -0.05200
Br2130     Br  0.83913825  0.54266652  0.49631777     0.00400
Br2131     Br  0.98501447  0.80203075  0.49246041     0.00900
Br2132     Br  0.92223147  0.66576411  0.54561369    -0.03600
Br2133     Br  0.01843058  0.60802450  0.49959330     0.01000
Br2134     Br  0.85230813  0.62741195  0.51223293    -0.02800
Br2135     Br  0.96939007  0.70741978  0.48724647    -0.03700
Br2136     Br  0.92432118  0.75629423  0.54978425     0.00300
C2137       C  0.90337534  0.47115422  0.46256151     0.01700
C2138       C  0.87193110  0.43070847  0.46688351     0.04500
C2139       C  0.84735265  0.40015897  0.45666345    -0.11600
C2140       C  0.85256349  0.41062331  0.44222589     0.23800
C2141       C  0.88753981  0.44849106  0.43790551    -0.12100
C2142       C  0.91421535  0.47748626  0.44804170     0.05200
C2143       C  0.81863835  0.38555564  0.43180731     0.27600
C2144       C  0.82594187  0.36547545  0.42057697    -0.12800
C2145       C  0.79903085  0.35217834  0.40876582     0.05700
C2146       C  0.76048380  0.35125127  0.40919009    -0.08800
C2147       C  0.75132477  0.36810620  0.42103448     0.06500
C2148       C  0.78138683  0.38734864  0.43189087    -0.13100
Br2149     Br  0.89558285  0.46393442  0.41814111    -0.05200
Br2150     Br  0.85825718  0.41739740  0.48640907     0.00400
Br2151     Br  0.81947395  0.34425013  0.39117726     0.00900
Br2152     Br  0.77270264  0.41878913  0.44629712    -0.03600
Br2153     Br  0.96158686  0.52935845  0.44152206     0.01000
Br2154     Br  0.80340134  0.34526825  0.46228889    -0.02800
Br2155     Br  0.87391350  0.35806087  0.42106410    -0.03700
Br2156     Br  0.69801497  0.36547322  0.42248703     0.00300
C2157       C  0.94429846  0.50312393  0.49389487     0.01700
C2158       C  0.97693631  0.49702440  0.48916741     0.04500
C2159       C  0.99234947  0.47669773  0.49774186    -0.11600
C2160       C  0.98182305  0.46976065  0.51212751     0.23800
C2161       C  0.95146049  0.47839260  0.51731652    -0.12100
C2162       C  0.93064772  0.49200343  0.50803415     0.05200
C2163       C  0.00527358  0.45654219  0.52176044     0.27600
C2164       C  0.98580413  0.41619681  0.52773877    -0.12800
C2165       C  0.00913032  0.40372525  0.53632097     0.05700
C2166       C  0.05324157  0.43043310  0.53803772    -0.08800
C2167       C  0.07259156  0.46893563  0.53068373     0.06500
C2168       C  0.04857248  0.48344708  0.52384435    -0.13100
Br2169     Br  0.93927419  0.47284168  0.53723561    -0.05200
Br2170     Br  0.00628660  0.52243189  0.47207774     0.00400
Br2171     Br  0.97911944  0.34965161  0.54512613     0.00900
Br2172     Br  0.07559648  0.54029459  0.51692445    -0.03600
Br2173     Br  0.88127491  0.49088199  0.51468843     0.01000
Br2174     Br  0.02848774  0.45872579  0.48974793    -0.02800
Br2175     Br  0.92737430  0.37733327  0.52359836    -0.03700
Br2176     Br  0.13158637  0.49783565  0.52694013     0.00300
C2177       C  0.66037265  0.64770795  0.88306819     0.01700
C2178       C  0.62683219  0.60797529  0.88731035     0.04500
C2179       C  0.61877662  0.57164377  0.88011524    -0.11600
C2180       C  0.64591473  0.57411846  0.86944802     0.23800
C2181       C  0.67654628  0.61327277  0.86427098    -0.12100
C2182       C  0.68320253  0.65013401  0.87085267     0.05200
C2183       C  0.64848724  0.53643122  0.86633023     0.27600
C2184       C  0.67336256  0.52715093  0.87516511    -0.12800
C2185       C  0.67275581  0.48917972  0.87374822     0.05700
C2186       C  0.64864640  0.46050938  0.86269796    -0.08800
C2187       C  0.62267102  0.47014790  0.85404621     0.06500
C2188       C  0.62310135  0.50807090  0.85588271    -0.13100
Br2189     Br  0.71301376  0.61569901  0.84942201    -0.05200
Br2190     Br  0.59627956  0.60085661  0.90452978     0.00400
Br2191     Br  0.70292848  0.47757106  0.88828492     0.00900
Br2192     Br  0.58764601  0.52126178  0.84451879    -0.03600
Br2193     Br  0.72886528  0.70264835  0.86448466     0.01000
Br2194     Br  0.57426161  0.51738187  0.88616302    -0.02800
Br2195     Br  0.70749440  0.56672632  0.88975826    -0.03700
Br2196     Br  0.58235159  0.43114370  0.84052453     0.00300
C2197       C  0.74226230  0.78566008  0.90807147     0.01700
C2198       C  0.72647296  0.80942984  0.91411713     0.04500
C2199       C  0.75019169  0.83954719  0.92452639    -0.11600
C2200       C  0.78906065  0.84497059  0.92901244     0.23800
C2201       C  0.80726140  0.82563632  0.92152554    -0.12100
C2202       C  0.78456494  0.79738320  0.91066054     0.05200
C2203       C  0.80814284  0.86528844  0.94269619     0.27600
C2204       C  0.84131855  0.90696124  0.94313766    -0.12800
C2205       C  0.86539407  0.92306736  0.95558180     0.05700
C2206       C  0.85583484  0.89747611  0.96771121    -0.08800
C2207       C  0.82038406  0.85676483  0.96751181     0.06500
C2208       C  0.79690100  0.84062624  0.95501115    -0.13100
Br2209     Br  0.86063123  0.83299975  0.92756938    -0.05200
Br2210     Br  0.67107912  0.79788422  0.90925599     0.00400
Br2211     Br  0.91350393  0.97887408  0.95542341     0.00900
Br2212     Br  0.75051193  0.78371727  0.95450649    -0.03600
Br2213     Br  0.80888554  0.76906777  0.90096869     0.01000
Br2214     Br  0.72807127  0.87039310  0.93365971    -0.02800
Br2215     Br  0.85466515  0.94094318  0.92638753    -0.03700
Br2216     Br  0.80320551  0.82297024  0.98439367     0.00300
C2217       C  0.51002804  0.77847483  0.80969613     0.01700
C2218       C  0.49698948  0.73565647  0.80985865     0.04500
C2219       C  0.48433412  0.71256216  0.79715190    -0.11600
C2220       C  0.48343052  0.73212860  0.78445450     0.23800
C2221       C  0.50121624  0.77579669  0.78407475    -0.12100
C2222       C  0.51534716  0.79903917  0.79660317     0.05200
C2223       C  0.45694278  0.70710897  0.77231829     0.27600
C2224       C  0.47390929  0.69639567  0.76096982    -0.12800
C2225       C  0.44945658  0.67779040  0.74871658     0.05700
C2226       C  0.40905608  0.67278949  0.74734740    -0.08800
C2227       C  0.39227086  0.68349063  0.75884041     0.06500
C2228       C  0.41542146  0.69881311  0.77144711    -0.13100
Br2229     Br  0.50160914  0.80310355  0.76661250    -0.05200
Br2230     Br  0.49391832  0.70850430  0.82753315     0.00400
Br2231     Br  0.47249310  0.66147346  0.73359531     0.00900
Br2232     Br  0.39073454  0.70973190  0.78755437    -0.03600
Br2233     Br  0.53868770  0.85889188  0.79594147     0.01000
Br2234     Br  0.46524528  0.65372923  0.79717367    -0.02800
Br2235     Br  0.53129673  0.70934080  0.76202886    -0.03700
Br2236     Br  0.33783417  0.67823317  0.75744503     0.00300
C2237       C  0.62179550  0.10606742  0.85582976     0.01700
C2238       C  0.64179035  0.09082946  0.86511131     0.04500
C2239       C  0.63483246  0.04998546  0.86344978    -0.11600
C2240       C  0.60901932  0.02428380  0.85250572     0.23800
C2241       C  0.59164075  0.03965281  0.84266738    -0.12100
C2242       C  0.59786255  0.08006221  0.84411640     0.05200
C2243       C  0.59688348  0.97966688  0.85166559     0.27600
C2244       C  0.61696768  0.96683198  0.84214191    -0.12800
C2245       C  0.59803453  0.92444197  0.83820891     0.05700
C2246       C  0.55840315  0.89458598  0.84369911    -0.08800
C2247       C  0.54055547  0.90760574  0.85434668     0.06500
C2248       C  0.55998990  0.94985904  0.85831696    -0.13100
Br2249     Br  0.55799718  0.00394794  0.82717004    -0.05200
Br2250     Br  0.68007571  0.12439610  0.88002873     0.00400
Br2251     Br  0.62438490  0.91017660  0.82370004     0.00900
Br2252     Br  0.53347000  0.96829997  0.87165756    -0.03600
Br2253     Br  0.57291074  0.09700744  0.82918369     0.01000
Br2254     Br  0.66004346  0.02810525  0.87622997    -0.02800
Br2255     Br  0.66780287  0.00869190  0.83316715    -0.03700
Br2256     Br  0.48696291  0.86957273  0.86270338     0.00300
C2257       C  0.67556702  0.74069882  0.88223631     0.01700
C2258       C  0.70141519  0.77717194  0.87418086     0.04500
C2259       C  0.68301712  0.79403946  0.86510801    -0.11600
C2260       C  0.63938590  0.77189177  0.86258735     0.23800
C2261       C  0.61429879  0.73403601  0.86973446    -0.12100
C2262       C  0.63169999  0.72163865  0.88055154     0.05200
C2263       C  0.61837794  0.79020054  0.85410767     0.27600
C2264       C  0.59155669  0.80067184  0.86102501    -0.12800
C2265       C  0.56306204  0.80707163  0.85318726     0.05700
C2266       C  0.56775694  0.81404996  0.83846876    -0.08800
C2267       C  0.59729962  0.80669863  0.83148770     0.06500
C2268       C  0.62030994  0.79210337  0.83924410    -0.13100
Br2269     Br  0.55523703  0.69991065  0.86527275    -0.05200
Br2270     Br  0.76152969  0.80479728  0.87516134     0.00400
Br2271     Br  0.51197548  0.79465866  0.86230148     0.00900
Br2272     Br  0.65251920  0.77233313  0.82953192    -0.03600
Br2273     Br  0.59482101  0.68649402  0.89506211     0.01000
Br2274     Br  0.71704431  0.84851870  0.85675852    -0.02800
Br2275     Br  0.59196249  0.80401130  0.88139075    -0.03700
Br2276     Br  0.60712757  0.81552987  0.81151969     0.00300
C2277       C  0.95395194  0.23958140  0.66795277     0.01700
C2278       C  0.95187161  0.27660283  0.66649783     0.04500
C2279       C  0.98262164  0.31436339  0.67281698    -0.11600
C2280       C  0.01462045  0.31515018  0.68118814     0.23800
C2281       C  0.01280609  0.27741885  0.68456581    -0.12100
C2282       C  0.98440170  0.24045415  0.67738938     0.05200
C2283       C  0.05418115  0.35532543  0.68410481     0.27600
C2284       C  0.09032815  0.36495082  0.67642620    -0.12800
C2285       C  0.12897353  0.40060843  0.67978711     0.05700
C2286       C  0.13099229  0.43116677  0.68934294    -0.08800
C2287       C  0.09424136  0.42085558  0.69719543     0.06500
C2288       C  0.05678803  0.38229429  0.69492944    -0.13100
Br2289     Br  0.05374468  0.27821000  0.69764565    -0.05200
Br2290     Br  0.91078823  0.27770453  0.65413264     0.00400
Br2291     Br  0.17874298  0.40289380  0.67238295     0.00900
Br2292     Br  0.00891211  0.36524759  0.70690052    -0.03600
Br2293     Br  0.99583604  0.19582530  0.67822053     0.01000
Br2294     Br  0.98352073  0.36590134  0.66888378    -0.02800
Br2295     Br  0.08700542  0.32877851  0.66116658    -0.03700
Br2296     Br  0.09303876  0.45767096  0.71129529     0.00300
C2297       C  0.90513689  0.10976158  0.63931489     0.01700
C2298       C  0.94067685  0.10480647  0.63854464     0.04500
C2299       C  0.94165528  0.07667967  0.62887222    -0.11600
C2300       C  0.90893638  0.05600936  0.61902563     0.23800
C2301       C  0.87164893  0.05682445  0.62073564    -0.12100
C2302       C  0.86948247  0.08307173  0.63103176     0.05200
C2303       C  0.91756091  0.04159530  0.60549109     0.27600
C2304       C  0.93688992  0.07072339  0.59445463    -0.12800
C2305       C  0.94788727  0.05885247  0.58185256     0.05700
C2306       C  0.93797715  0.01710178  0.57992160    -0.08800
C2307       C  0.91928359  0.98812059  0.59110757     0.06500
C2308       C  0.90936826  0.00045885  0.60386520    -0.13100
Br2309     Br  0.82514669  0.02469324  0.60806146    -0.05200
Br2310     Br  0.99201330  0.14271222  0.64824273     0.00400
Br2311     Br  0.97621737  0.10015872  0.56727247     0.00900
Br2312     Br  0.88539337  0.96148554  0.61928208    -0.03600
Br2313     Br  0.81930209  0.08586604  0.63245921     0.01000
Br2314     Br  0.98987664  0.06972879  0.62790947    -0.02800
Br2315     Br  0.94811363  0.12723126  0.59660935    -0.03700
Br2316     Br  0.90989633  0.93219139  0.58947020     0.00300
C2317       C  0.63482175  0.96878336  0.71831032     0.01700
C2318       C  0.62319485  0.92676053  0.72161532     0.04500
C2319       C  0.59468234  0.89362329  0.71294392    -0.11600
C2320       C  0.57871153  0.90177706  0.70060272     0.23800
C2321       C  0.59460300  0.94335358  0.69619220    -0.12100
C2322       C  0.62127288  0.97677831  0.70522878     0.05200
C2323       C  0.53880671  0.86733390  0.69457098     0.27600
C2324       C  0.53841571  0.83759368  0.68534956    -0.12800
C2325       C  0.50077980  0.79946276  0.68274474     0.05700
C2326       C  0.46310399  0.79061469  0.68968345    -0.08800
C2327       C  0.46310265  0.82375059  0.69715878     0.06500
C2328       C  0.50080924  0.86120865  0.69988992    -0.13100
Br2329     Br  0.57567087  0.95381691  0.67843040    -0.05200
Br2330     Br  0.64154174  0.91267247  0.73893182     0.00400
Br2331     Br  0.50286777  0.76078688  0.66964843     0.00900
Br2332     Br  0.50104310  0.90336546  0.71191654    -0.03600
Br2333     Br  0.63140163  0.03166029  0.70066263     0.01000
Br2334     Br  0.57269403  0.83630579  0.71892747    -0.02800
Br2335     Br  0.59032154  0.84873884  0.67694495    -0.03700
Br2336     Br  0.41187854  0.82034572  0.70316091     0.00300
C2337       C  0.69070819  0.10011918  0.74746424     0.01700
C2338       C  0.72894718  0.12423860  0.75475193     0.04500
C2339       C  0.73392214  0.15577903  0.76428072    -0.11600
C2340       C  0.69965888  0.16128372  0.76729507     0.23800
C2341       C  0.66274319  0.13970529  0.75909016    -0.12100
C2342       C  0.65906185  0.11069367  0.74883993     0.05200
C2343       C  0.69954276  0.18423567  0.78026299     0.27600
C2344       C  0.69474341  0.16531376  0.79362726    -0.12800
C2345       C  0.68872981  0.18342270  0.80573606     0.05700
C2346       C  0.68576214  0.21967199  0.80465153    -0.08800
C2347       C  0.69126604  0.23916324  0.79138050     0.06500
C2348       C  0.69914543  0.22207637  0.77929008    -0.13100
Br2349     Br  0.61487575  0.14562124  0.76307724    -0.05200
Br2350     Br  0.77260004  0.11103012  0.75272707     0.00400
Br2351     Br  0.68461718  0.15847918  0.82392902     0.00900
Br2352     Br  0.70821277  0.24978311  0.76130379    -0.03600
Br2353     Br  0.60815970  0.08168523  0.73765782     0.01000
Br2354     Br  0.78642574  0.18928785  0.77408499    -0.02800
Br2355     Br  0.69403844  0.11308626  0.79537673    -0.03700
Br2356     Br  0.68454427  0.28720119  0.78955307     0.00300
C2357       C  0.71624308  0.06107728  0.72026170     0.01700
C2358       C  0.73113964  0.10124124  0.71416966     0.04500
C2359       C  0.76594248  0.11845406  0.70496003    -0.11600
C2360       C  0.78044708  0.09298284  0.69920199     0.23800
C2361       C  0.76294529  0.05181377  0.70433691    -0.12100
C2362       C  0.73605413  0.03876732  0.71602472     0.05200
C2363       C  0.81339385  0.10920952  0.68783608     0.27600
C2364       C  0.80670059  0.12426930  0.67491467    -0.12800
C2365       C  0.83975229  0.14486203  0.66518096     0.05700
C2366       C  0.87716880  0.14356325  0.66683349    -0.08800
C2367       C  0.88009938  0.12113675  0.67840456     0.06500
C2368       C  0.85132179  0.10894645  0.68960267    -0.13100
Br2369     Br  0.77259753  0.01152113  0.69487764    -0.05200
Br2370     Br  0.70244523  0.13178750  0.71648351     0.00400
Br2371     Br  0.83274307  0.17391866  0.64947996     0.00900
Br2372     Br  0.86593143  0.09449938  0.70750762    -0.03600
Br2373     Br  0.73357405  0.99489523  0.72753115     0.01000
Br2374     Br  0.79417567  0.17734498  0.70050254    -0.02800
Br2375     Br  0.75158613  0.11449919  0.67010231    -0.03700
Br2376     Br  0.91720262  0.09927667  0.67781728     0.00300
loop_ 
_geom_bond_atom_site_label_1 
_geom_bond_atom_site_label_2 
_geom_bond_distance 
_geom_bond_site_symmetry_2 
_ccdc_geom_bond_type 
N1            C5   1.379       .  A
N1            C2   1.379       .  A
N1         C2357   1.469       .  S
C2            C3   1.381       .  A
C2         C2337   1.493       .  S
C3            C4   1.356   1_545  A
C3            H6   1.083       .  S
C4            C5   1.380   1_565  A
C4            H7   1.082       .  S
C5         C2317   1.502   1_545  S
N8           C12   1.375       .  A
N8            C9   1.373       .  A
N8         C2366   1.458       .  S
C9           C10   1.382       .  A
C9         C2297   1.493       .  S
C10          C11   1.362       .  A
C10          H13   1.083       .  S
C11          C12   1.380       .  A
C11          H14   1.083       .  S
C12        C2277   1.501       .  S
N15          C19   1.373       .  A
N15          C16   1.367       .  A
N15        C2266   1.458       .  S
C16          C17   1.382       .  A
C16        C2217   1.482       .  S
C17          C18   1.361       .  A
C17          H20   1.083       .  S
C18          C19   1.381       .  A
C18          H21   1.082       .  S
C19        C2246   1.499       .  S
N22          C26   1.373       .  A
N22          C23   1.368       .  A
N22        C2257   1.458       .  S
C23          C24   1.382       .  A
C23        C2197   1.481       .  S
C24          C25   1.357       .  A
C24          H27   1.083       .  S
C25          C26   1.380       .  A
C25          H28   1.083       .  S
C26        C2177   1.490       .  S
N29          C33   1.376       .  A
N29          C30   1.373       .  A
N29        C2157   1.459       .  S
C30          C31   1.378       .  A
C30        C2117   1.485       .  S
C31          C32   1.354       .  A
C31          H34   1.083       .  S
C32          C33   1.384       .  A
C32          H35   1.083       .  S
C33        C2137   1.500       .  S
N36          C40   1.368       .  A
N36          C37   1.376       .  A
N36        C2166   1.461       .  S
C37          C38   1.383       .  A
C37        C2077   1.503       .  S
C38          C39   1.359       .  A
C38          H41   1.082       .  S
C39          C40   1.379       .  A
C39          H42   1.083       .  S
C40        C2106   1.479       .  S
N43          C47   1.371   1_556  A
N43          C44   1.368       .  A
N43        C2057   1.461   1_556  S
C44          C45   1.380       .  A
C44        C2017   1.476       .  S
C45          C46   1.358       .  A
C45          H48   1.083       .  S
C46          C47   1.380   1_556  A
C46          H49   1.081       .  S
C47        C2037   1.485       .  S
N50          C54   1.366       .  A
N50          C51   1.367       .  A
N50        C2066   1.450       .  S
C51          C52   1.385       .  A
C51        C2006   1.493       .  S
C52          C53   1.367       .  A
C52          H55   1.083       .  S
C53          C54   1.379       .  A
C53          H56   1.082       .  S
C54        C1977   1.491       .  S
N57          C61   1.379   1_455  A
N57          C58   1.377   1_455  A
N57        C1957   1.468       .  S
C58          C59   1.379       .  A
C58        C1917   1.487   1_655  S
C59          C60   1.353       .  A
C59          H62   1.083       .  S
C60          C61   1.382       .  A
C60          H63   1.083       .  S
C61        C1937   1.500       .  S
N64          C68   1.364       .  A
N64          C65   1.378       .  A
N64        C1966   1.466       .  S
C65          C66   1.389       .  A
C65        C1906   1.521       .  S
C66          C67   1.365       .  A
C66          H69   1.083       .  S
C67          C68   1.375       .  A
C67          H70   1.082       .  S
C68        C1877   1.488       .  S
N71          C75   1.375       .  A
N71          C72   1.370       .  A
N71        C1857   1.457       .  S
C72          C73   1.381       .  A
C72        C1826   1.488       .  S
C73          C74   1.363       .  A
C73          H76   1.083       .  S
C74          C75   1.380       .  A
C74          H77   1.083       .  S
C75        C1837   1.498       .  S
N78          C82   1.369       .  A
N78          C79   1.377       .  A
N78        C1866   1.461       .  S
C79          C80   1.383       .  A
C79        C1777   1.500       .  S
C80          C81   1.356       .  A
C80          H83   1.083       .  S
C81          C82   1.378       .  A
C81          H84   1.083       .  S
C82        C1797   1.481   1_545  S
N85          C89   1.367       .  A
N85          C86   1.378       .  A
N85        C1757   1.460       .  S
C86          C87   1.383       .  A
C86        C1746   1.502       .  S
C87          C88   1.365       .  A
C87          H90   1.083       .  S
C88          C89   1.378       .  A
C88          H91   1.082       .  S
C89        C1717   1.485       .  S
N92          C96   1.372       .  A
N92          C93   1.372       .  A
N92        C1766   1.456       .  S
C93          C94   1.386       .  A
C93        C1697   1.509       .  S
C94          C95   1.369       .  A
C94          H97   1.083       .  S
C95          C96   1.379       .  A
C95          H98   1.082   1_565  S
C96        C1677   1.505       .  S
N99         C103   1.374       .  A
N99         C100   1.378       .  A
N99        C1657   1.471       .  S
C100        C101   1.383       .  A
C100       C1637   1.498       .  S
C101        C102   1.355       .  A
C101        H104   1.083       .  S
C102        C103   1.378       .  A
C102        H105   1.083       .  S
C103       C1617   1.483       .  S
N106        C110   1.377       .  A
N106        C107   1.374       .  A
N106       C1666   1.455       .  S
C107        C108   1.378       .  A
C107       C1577   1.499       .  S
C108        C109   1.364       .  A
C108        H111   1.083       .  S
C109        C110   1.384       .  A
C109        H112   1.083       .  S
C110       C1606   1.508       .  S
N113        C117   1.376       .  A
N113        C114   1.367       .  A
N113       C1557   1.465       .  S
C114        C115   1.377       .  A
C114       C1546   1.496       .  S
C115        C116   1.364       .  A
C115        H118   1.082       .  S
C116        C117   1.388       .  A
C116        H119   1.083       .  S
C117       C1517   1.514       .  S
N120        C124   1.374       .  A
N120        C121   1.378       .  A
N120       C1566   1.464       .  S
C121        C122   1.384       .  A
C121       C1477   1.497       .  S
C122        C123   1.352       .  A
C122        H125   1.083       .  S
C123        C124   1.377       .  A
C123        H126   1.083       .  S
C124       C1497   1.484       .  S
N127        C131   1.367   1_556  A
N127        C128   1.372       .  A
N127       C1457   1.453   1_556  S
C128        C129   1.380       .  A
C128       C1426   1.496       .  S
C129        C130   1.366       .  A
C129        H132   1.083       .  S
C130        C131   1.381   1_556  A
C130        H133   1.083       .  S
C131       C1437   1.488       .  S
N134        C138   1.373       .  A
N134        C135   1.370       .  A
N134       C1466   1.463       .  S
C135        C136   1.380       .  A
C135       C1386   1.481       .  S
C136        C137   1.355       .  A
C136        H139   1.083       .  S
C137        C138   1.381       .  A
C137        H140   1.083       .  S
C138       C1397   1.485       .  S
N141        C145   1.372       .  A
N141        C142   1.377       .  A
N141       C1357   1.461       .  S
C142        C143   1.382       .  A
C142       C1317   1.505       .  S
C143        C144   1.363       .  A
C143        H146   1.082       .  S
C144        C145   1.380       .  A
C144        H147   1.083       .  S
C145       C1337   1.489       .  S
N148        C152   1.373       .  A
N148        C149   1.370       .  A
N148       C1366   1.458       .  S
C149        C150   1.380       .  A
C149       C1297   1.484       .  S
C150        C151   1.361       .  A
C150        H153   1.083       .  S
C151        C152   1.381       .  A
C151        H154   1.083       .  S
C152       C1277   1.495       .  S
N155        C159   1.369       .  A
N155        C156   1.366       .  A
N155       C1266   1.451       .  S
C156        C157   1.380       .  A
C156       C1226   1.493       .  S
C157        C158   1.369       .  A
C157        H160   1.082       .  S
C158        C159   1.385       .  A
C158        H161   1.083       .  S
C159       C1237   1.501       .  S
N162        C166   1.371       .  A
N162        C163   1.378       .  A
N162       C1257   1.463   1_565  S
C163        C164   1.382       .  A
C163       C1186   1.498   1_565  S
C164        C165   1.358       .  A
C164        H167   1.083       .  S
C165        C166   1.378       .  A
C165        H168   1.083       .  S
C166       C1206   1.481       .  S
N169        C173   1.373       .  A
N169        C170   1.368       .  A
N169       C1157   1.453       .  S
C170        C171   1.379       .  A
C170       C1137   1.495       .  S
C171        C172   1.370       .  A
C171        H174   1.082       .  S
C172        C173   1.386       .  A
C172        H175   1.083       .  S
C173       C1117   1.509       .  S
N176        C180   1.373       .  A
N176        C177   1.379       .  A
N176       C1166   1.460       .  S
C177        C178   1.381       .  A
C177       C1097   1.507       .  S
C178        C179   1.364       .  A
C178        H181   1.083       .  S
C179        C180   1.381       .  A
C179        H182   1.083   1_565  S
C180       C1077   1.497       .  S
N183        C187   1.374       .  A
N183        C184   1.372       .  A
N183       C1066   1.460       .  S
C184        C185   1.381       .  A
C184       C1046   1.487       .  S
C185        C186   1.360       .  A
C185        H188   1.083       .  S
C186        C187   1.380       .  A
C186        H189   1.082       .  S
C187       C1026   1.494       .  S
N190        C194   1.373   1_545  A
N190        C191   1.378       .  A
N190       C1057   1.467       .  S
C191        C192   1.383   1_545  A
C191        C997   1.497       .  S
C192        C193   1.355       .  A
C192        H195   1.083       .  S
C193        C194   1.378       .  A
C193        H196   1.083       .  S
C194        C977   1.479       .  S
N197        C201   1.372       .  A
N197        C198   1.375       .  A
N197        C957   1.463       .  S
C198        C199   1.382       .  A
C198        C926   1.507       .  S
C199        C200   1.364       .  A
C199        H202   1.082       .  S
C200        C201   1.384       .  A
C200        H203   1.083       .  S
C201        C937   1.498       .  S
N204        C208   1.382       .  A
N204        C205   1.376       .  A
N204        C966   1.468       .  S
C205        C206   1.379       .  A
C205        C877   1.493       .  S
C206        C207   1.360       .  A
C206        H209   1.083       .  S
C207        C208   1.382       .  A
C207        H210   1.082       .  S
C208        C906   1.513       .  S
N211        C215   1.369       .  A
N211        C212   1.379       .  A
N211        C866   1.461       .  S
C212        C213   1.383       .  A
C212        C817   1.508       .  S
C213        C214   1.364       .  A
C213        H216   1.083       .  S
C214        C215   1.379       .  A
C214        H217   1.083       .  S
C215        C837   1.488       .  S
N218        C222   1.372       .  A
N218        C219   1.370       .  A
N218        C857   1.455       .  S
C219        C220   1.385       .  A
C219        C797   1.499       .  S
C220        C221   1.368       .  A
C220        H223   1.083       .  S
C221        C222   1.380       .  A
C221        H224   1.082       .  S
C222        C777   1.502       .  S
N225        C229   1.367   1_556  A
N225        C226   1.374       .  A
N225        C766   1.459   1_556  S
C226        C227   1.381       .  A
C226        C737   1.497       .  S
C227        C228   1.363       .  A
C227        H230   1.083       .  S
C228        C229   1.381   1_556  A
C228        H231   1.083   1_556  S
C229        C717   1.482       .  S
N232        C236   1.375       .  A
N232        C233   1.371       .  A
N232        C757   1.462       .  S
C233        C234   1.378       .  A
C233        C677   1.480       .  S
C234        C235   1.355       .  A
C234        H237   1.083       .  S
C235        C236   1.383       .  A
C235        H238   1.083       .  S
C236        C706   1.495       .  S
N239        C243   1.365       .  A
N239        C240   1.379       .  A
N239        C657   1.449       .  S
C240        C241   1.383       .  A
C240        C626   1.511       .  S
C241        C242   1.363       .  A
C241        H244   1.082       .  S
C242        C243   1.381       .  A
C242        H245   1.083       .  S
C243        C637   1.488       .  S
N246        C250   1.359   1_455  A
N246        C247   1.368   1_455  A
N246        C666   1.449       .  S
C247        C248   1.387       .  A
C247        C586   1.508       .  S
C248        C249   1.372       .  A
C248        H251   1.082       .  S
C249        C250   1.379       .  A
C249        H252   1.082       .  S
C250        C597   1.485       .  S
O253        C264   1.295       .  A
O253       Eu289   2.483       .  S
O254        C265   1.297       .  A
O254       Eu288   2.493       .  S
O255        C266   1.291       .  A
O255       Eu261   2.473       .  S
O256        C267   1.299       .  A
O256       Eu261   2.507       .  S
O257        C267   1.283       .  A
O257       Eu291   2.413       .  S
O258        C266   1.288       .  A
O258       Eu290   2.457       .  S
O259        C265   1.286       .  A
O259       Eu261   2.437       .  S
O260        C264   1.292       .  A
O260       Eu261   2.467       .  S
Eu261       O271   2.352       .  S
Eu261       O263   2.352       .  S
Eu261       O262   2.343       .  S
Eu261       O269   2.364       .  S
O262       Eu291   2.355       .  S
O262       Eu288   2.346       .  S
O263       Eu289   2.346       .  S
O263       Eu290   2.343       .  S
C264       C2346   1.487       .  S
C265       C1726   1.494       .  S
C266       C1586   1.515       .  S
C267        C606   1.473       .  S
H268        O269   0.966       .  S
O269       Eu290   2.357       .  S
O269       Eu288   2.351       .  S
H270        O271   0.965       .  S
O271       Eu289   2.369       .  S
O271       Eu291   2.366       .  S
O272        C295   1.293       .  A
O272       Eu288   2.471       .  S
O273        C296   1.298       .  A
O273       Eu289   2.503       .  S
O274        C297   1.288       .  A
O274       Eu290   2.456       .  S
O275        C298   1.294       .  A
O275       Eu291   2.483       .  S
O276        C299   1.294       .  A
O276       Eu291   2.489       .  S
O277        C300   1.290       .  A
O277       Eu290   2.460       .  S
O278        C301   1.286       .  A
O278       Eu292   2.432       .  S
O279        C302   1.286       .  A
O279       Eu292   2.432       .  S
O280        C301   1.290       .  A
O280       Eu290   2.453       .  S
O281        C302   1.294       .  A
O281       Eu291   2.477       .  S
O282        C297   1.285       .  A
O282       Eu288   2.448       .  S
O283        C300   1.292       .  A
O283       Eu289   2.467       .  S
O284        C299   1.280       .  A
O284       Eu289   2.425       .  S
O285        C298   1.286       .  A
O285       Eu288   2.434       .  S
O286        C295   1.287       .  A
O286       Eu292   2.447       .  S
O287        C296   1.288       .  A
O287       Eu292   2.450       .  S
Eu288       O306   2.363       .  S
Eu288       O294   2.339       .  S
Eu289       O293   2.355       .  S
Eu289       O304   2.348       .  S
Eu290       O304   2.360       .  S
Eu290       O294   2.348       .  S
Eu291       O293   2.349       .  S
Eu291       O306   2.342       .  S
Eu292       O293   2.340       .  S
Eu292       O304   2.360       .  S
Eu292       O306   2.346       .  S
Eu292       O294   2.347       .  S
C295       C2026   1.493       .  S
C296       C1686   1.505       .  S
C297       C2186   1.510       .  S
C298        C746   1.499       .  S
C299       C2237   1.512       .  S
C300       C1037   1.499       .  S
C301        C646   1.457       .  S
C302       C1417   1.488       .  S
H303        O304   0.966       .  S
H305        O306   0.967       .  S
O307        C318   1.293       .  A
O307       Eu343   2.468   1_556  S
O308        C319   1.292       .  A
O308       Eu342   2.470   1_655  S
O309        C320   1.291       .  A
O309       Eu315   2.458       .  S
O310        C321   1.295   1_655  A
O310       Eu315   2.480   1_546  S
O311        C321   1.292       .  A
O311       Eu345   2.465   1_546  S
O312        C320   1.290       .  A
O312       Eu344   2.446       .  S
O313        C319   1.290       .  A
O313       Eu315   2.452   1_545  S
O314        C318   1.289       .  A
O314       Eu315   2.451   1_556  S
Eu315       O325   2.353   1_554  S
Eu315       O317   2.355       .  S
Eu315       O316   2.345   1_665  S
Eu315       O323   2.361       .  S
O316       Eu345   2.364   1_545  S
O316       Eu342   2.362       .  S
O317       Eu343   2.343       .  S
O317       Eu344   2.354       .  S
C318       C2206   1.483       .  S
C319        C726   1.484       .  S
C320       C1377   1.474       .  S
C321        C577   1.488       .  S
H322        O323   0.965       .  S
O323       Eu344   2.352       .  S
O323       Eu342   2.341   1_665  S
H324        O325   0.966       .  S
O325       Eu343   2.354   1_556  S
O325       Eu345   2.354   1_656  S
O326        C349   1.292       .  A
O326       Eu342   2.465       .  S
O327        C350   1.292       .  A
O327       Eu343   2.469       .  S
O328        C351   1.288       .  A
O328       Eu344   2.458       .  S
O329        C352   1.291       .  A
O329       Eu345   2.459   1_545  S
O330        C353   1.297       .  A
O330       Eu345   2.494   1_556  S
O331        C354   1.286       .  A
O331       Eu344   2.443       .  S
O332        C355   1.293       .  A
O332       Eu346   2.469   1_655  S
O333        C356   1.291       .  A
O333       Eu346   2.463       .  S
O334        C355   1.291       .  A
O334       Eu344   2.465       .  S
O335        C356   1.293       .  A
O335       Eu345   2.468       .  S
O336        C351   1.291   1_545  A
O336       Eu342   2.471   1_655  S
O337        C354   1.288       .  A
O337       Eu343   2.452       .  S
O338        C353   1.290   1_655  A
O338       Eu343   2.455   1_556  S
O339        C352   1.287       .  A
O339       Eu342   2.427       .  S
O340        C349   1.292   1_565  A
O340       Eu346   2.467       .  S
O341        C350   1.289       .  A
O341       Eu346   2.451   1_655  S
Eu342       O360   2.362   1_545  S
Eu342       O348   2.347   1_445  S
Eu343       O347   2.360   1_655  S
Eu343       O358   2.354       .  S
Eu344       O358   2.348       .  S
Eu344       O348   2.346       .  S
Eu345       O347   2.348       .  S
Eu345       O360   2.363       .  S
Eu346       O347   2.360       .  S
Eu346       O358   2.353   1_455  S
Eu346       O360   2.345       .  S
Eu346       O348   2.354   1_455  S
C349       C1817   1.490       .  S
C350        C697   1.495       .  S
C351       C1177   1.511   1_565  S
C352       C1986   1.472       .  S
C353       C1706   1.490       .  S
C354       C2046   1.496       .  S
C355        C806   1.479       .  S
C356       C1446   1.485       .  S
H357        O358   0.965       .  S
H359        O360   0.966   1_545  S
O361        C372   1.291       .  A
O361       Eu397   2.456       .  S
O362        C373   1.290       .  A
O362       Eu396   2.467       .  S
O363        C374   1.294       .  A
O363       Eu369   2.475       .  S
O364        C375   1.286       .  A
O364       Eu369   2.448       .  S
O365        C375   1.290       .  A
O365       Eu399   2.474       .  S
O366        C374   1.296       .  A
O366       Eu398   2.495       .  S
O367        C373   1.302       .  A
O367       Eu369   2.520       .  S
O368        C372   1.295       .  A
O368       Eu369   2.474       .  S
Eu369       O379   2.371       .  S
Eu369       O371   2.365       .  S
Eu369       O370   2.353       .  S
Eu369       O377   2.346       .  S
O370       Eu399   2.356       .  S
O370       Eu396   2.347       .  S
O371       Eu397   2.362       .  S
O371       Eu398   2.341       .  S
C372       C2146   1.484       .  S
C373       C1086   1.512       .  S
C374        C917   1.510       .  S
C375       C1286   1.516       .  S
H376        O377   0.965       .  S
O377       Eu398   2.369       .  S
O377       Eu396   2.369       .  S
H378        O379   0.965       .  S
O379       Eu397   2.366       .  S
O379       Eu399   2.344       .  S
O380        C403   1.289       .  A
O380       Eu396   2.452       .  S
O381        C404   1.294       .  A
O381       Eu397   2.483       .  S
O382        C405   1.293       .  A
O382       Eu398   2.471       .  S
O383        C406   1.288       .  A
O383       Eu399   2.445       .  S
O384        C407   1.287       .  A
O384       Eu399   2.450       .  S
O385        C408   1.294       .  A
O385       Eu398   2.478       .  S
O386        C409   1.296       .  A
O386       Eu400   2.490       .  S
O387        C410   1.296       .  A
O387       Eu400   2.488       .  S
O388        C409   1.289       .  A
O388       Eu398   2.456       .  S
O389        C410   1.294       .  A
O389       Eu399   2.480       .  S
O390        C405   1.291       .  A
O390       Eu396   2.458       .  S
O391        C408   1.294       .  A
O391       Eu397   2.483       .  S
O392        C407   1.291       .  A
O392       Eu397   2.466       .  S
O393        C406   1.292       .  A
O393       Eu396   2.471       .  S
O394        C403   1.293       .  A
O394       Eu400   2.478       .  S
O395        C404   1.294       .  A
O395       Eu400   2.479       .  S
Eu396       O414   2.354       .  S
Eu396       O402   2.361       .  S
Eu397       O401   2.349       .  S
Eu397       O412   2.359       .  S
Eu398       O412   2.370       .  S
Eu398       O402   2.366       .  S
Eu399       O401   2.353       .  S
Eu399       O414   2.355       .  S
Eu400       O401   2.359       .  S
Eu400       O412   2.372       .  S
Eu400       O414   2.361       .  S
Eu400       O402   2.360       .  S
C403       C1786   1.501       .  S
C404       C1126   1.491       .  S
C405       C1886   1.474       .  S
C406       C1217   1.473       .  S
C407       C1946   1.500       .  S
C408       C1537   1.508       .  S
C409       C1346   1.509       .  S
C410        C826   1.511       .  S
H411        O412   0.966       .  S
H413        O414   0.965       .  S
O415        C426   1.291       .  A
O415       Eu451   2.470       .  S
O416        C427   1.290       .  A
O416       Eu450   2.452       .  S
O417        C428   1.289       .  A
O417       Eu423   2.455       .  S
O418        C429   1.292       .  A
O418       Eu423   2.460       .  S
O419        C429   1.294       .  A
O419       Eu453   2.478       .  S
O420        C428   1.294       .  A
O420       Eu452   2.473       .  S
O421        C427   1.300       .  A
O421       Eu423   2.512       .  S
O422        C426   1.294       .  A
O422       Eu423   2.476       .  S
Eu423       O433   2.370       .  S
Eu423       O425   2.358       .  S
Eu423       O424   2.353       .  S
Eu423       O431   2.357       .  S
O424       Eu453   2.359       .  S
O424       Eu450   2.362       .  S
O425       Eu451   2.353       .  S
O425       Eu452   2.343       .  S
C426       C2326   1.510       .  S
C427       C1737   1.494       .  S
C428        C986   1.498       .  S
C429       C2226   1.489       .  S
H430        O431   0.957       .  S
O431       Eu452   2.364       .  S
O431       Eu450   2.371       .  S
H432        O433   0.967       .  S
O433       Eu451   2.366       .  S
O433       Eu453   2.359       .  S
O434        C457   1.291       .  A
O434       Eu450   2.476       .  S
O435        C458   1.293       .  A
O435       Eu451   2.468       .  S
O436        C459   1.289       .  A
O436       Eu452   2.450       .  S
O437        C460   1.290       .  A
O437       Eu453   2.453       .  S
O438        C461   1.292       .  A
O438       Eu453   2.467       .  S
O439        C462   1.295       .  A
O439       Eu452   2.481       .  S
O440        C463   1.292       .  A
O440       Eu454   2.474       .  S
O441        C464   1.290       .  A
O441       Eu454   2.462       .  S
O442        C463   1.288       .  A
O442       Eu452   2.460       .  S
O443        C464   1.292       .  A
O443       Eu453   2.469       .  S
O444        C459   1.296       .  A
O444       Eu450   2.482       .  S
O445        C462   1.292       .  A
O445       Eu451   2.466       .  S
O446        C461   1.294       .  A
O446       Eu451   2.478       .  S
O447        C460   1.296       .  A
O447       Eu450   2.495       .  S
O448        C457   1.288       .  A
O448       Eu454   2.450       .  S
O449        C458   1.290       .  A
O449       Eu454   2.457       .  S
Eu450       O468   2.357       .  S
Eu450       O456   2.354       .  S
Eu451       O455   2.351       .  S
Eu451       O466   2.358       .  S
Eu452       O466   2.351       .  S
Eu452       O456   2.357       .  S
Eu453       O455   2.348       .  S
Eu453       O468   2.362       .  S
Eu454       O455   2.357       .  S
Eu454       O466   2.348       .  S
Eu454       O468   2.353       .  S
Eu454       O456   2.348       .  S
C457       C2286   1.511       .  S
C458       C1486   1.494       .  S
C459       C1597   1.481       .  S
C460        C617   1.509       .  S
C461       C1626   1.487       .  S
C462        C886   1.488       .  S
C463       C2086   1.515       .  S
C464       C1017   1.502       .  S
H465        O466   0.968       .  S
H467        O468   0.966       .  S
O469        C480   1.292       .  A
O469       Eu505   2.465       .  S
O470        C481   1.291       .  A
O470       Eu504   2.472       .  S
O471        C482   1.290       .  A
O471       Eu477   2.460       .  S
O472        C483   1.294       .  A
O472       Eu477   2.480       .  S
O473        C483   1.289       .  A
O473       Eu507   2.458       .  S
O474        C482   1.288       .  A
O474       Eu506   2.446       .  S
O475        C481   1.293       .  A
O475       Eu477   2.468       .  S
O476        C480   1.296       .  A
O476       Eu477   2.493       .  S
Eu477       O487   2.349       .  S
Eu477       O479   2.358       .  S
Eu477       O478   2.351       .  S
Eu477       O485   2.365       .  S
O478       Eu507   2.354       .  S
O478       Eu504   2.360       .  S
O479       Eu505   2.352       .  S
O479       Eu506   2.357       .  S
C480       C1997   1.488       .  S
C481       C1197   1.504       .  S
C482       C1406   1.494       .  S
C483        C846   1.502       .  S
H484        O485   0.966       .  S
O485       Eu506   2.364       .  S
O485       Eu504   2.345       .  S
H486        O487   0.965       .  S
O487       Eu505   2.354       .  S
O487       Eu507   2.351       .  S
O488        C511   1.290       .  A
O488       Eu504   2.451       .  S
O489        C512   1.296       .  A
O489       Eu505   2.493       .  S
O490        C513   1.290       .  A
O490       Eu506   2.458       .  S
O491        C514   1.295       .  A
O491       Eu507   2.478       .  S
O492        C515   1.295       .  A
O492       Eu507   2.491       .  S
O493        C516   1.290       .  A
O493       Eu506   2.449       .  S
O494        C517   1.293       .  A
O494       Eu508   2.473       .  S
O495        C518   1.289       .  A
O495       Eu508   2.460       .  S
O496        C517   1.293       .  A
O496       Eu506   2.473       .  S
O497        C518   1.289       .  A
O497       Eu507   2.456       .  S
O498        C513   1.294       .  A
O498       Eu504   2.476       .  S
O499        C516   1.292       .  A
O499       Eu505   2.467       .  S
O500        C515   1.287       .  A
O500       Eu505   2.446       .  S
O501        C514   1.287       .  A
O501       Eu504   2.441       .  S
O502        C511   1.296       .  A
O502       Eu508   2.485       .  S
O503        C512   1.288       .  A
O503       Eu508   2.443       .  S
Eu504       O522   2.365       .  S
Eu504       O510   2.354       .  S
Eu505       O509   2.345       .  S
Eu505       O520   2.361       .  S
Eu506       O520   2.357       .  S
Eu506       O510   2.349       .  S
Eu507       O509   2.343       .  S
Eu507       O522   2.367       .  S
Eu508       O509   2.352       .  S
Eu508       O520   2.366       .  S
Eu508       O522   2.357       .  S
Eu508       O510   2.351       .  S
C511       C1897   1.486       .  S
C512       C1246   1.480       .  S
C513       C1806   1.481       .  S
C514       C1146   1.471       .  S
C515       C1846   1.506       .  S
C516        C686   1.482       .  S
C517        C786   1.497       .  S
C518       C1306   1.507       .  S
H519        O520   0.966       .  S
H521        O522   0.967       .  S
O523        C534   1.294       .  A
O523       Eu559   2.473   1_655  S
O524        C535   1.292       .  A
O524       Eu558   2.468       .  S
O525        C536   1.294       .  A
O525       Eu531   2.481       .  S
O526        C537   1.290       .  A
O526       Eu531   2.457       .  S
O527        C537   1.290       .  A
O527       Eu561   2.463       .  S
O528        C536   1.290       .  A
O528       Eu560   2.456       .  S
O529        C535   1.294       .  A
O529       Eu531   2.472       .  S
O530        C534   1.292   1_565  A
O530       Eu531   2.462       .  S
Eu531       O541   2.360       .  S
Eu531       O533   2.355       .  S
Eu531       O532   2.352       .  S
Eu531       O539   2.353       .  S
O532       Eu561   2.356       .  S
O532       Eu558   2.354       .  S
O533       Eu559   2.360   1_665  S
O533       Eu560   2.356       .  S
C534       C2306   1.487       .  S
C535       C1506   1.490       .  S
C536        C946   1.483       .  S
C537       C1646   1.498       .  S
H538        O539   0.971       .  S
O539       Eu560   2.359       .  S
O539       Eu558   2.364       .  S
H540        O541   0.965       .  S
O541       Eu559   2.356   1_665  S
O541       Eu561   2.347       .  S
O542        C565   1.294   1_655  A
O542       Eu558   2.476       .  S
O543        C566   1.294       .  A
O543       Eu559   2.479       .  S
O544        C567   1.290       .  A
O544       Eu560   2.461       .  S
O545        C568   1.291       .  A
O545       Eu561   2.461       .  S
O546        C569   1.295       .  A
O546       Eu561   2.490   1_455  S
O547        C570   1.291       .  A
O547       Eu560   2.465   1_545  S
O548        C571   1.292       .  A
O548       Eu562   2.467   1_545  S
O549        C572   1.297       .  A
O549       Eu562   2.503       .  S
O550        C571   1.292   1_655  A
O550       Eu560   2.467   1_545  S
O551        C572   1.291       .  A
O551       Eu561   2.466   1_455  S
O552        C567   1.294       .  A
O552       Eu558   2.476       .  S
O553        C570   1.292   1_455  A
O553       Eu559   2.463       .  S
O554        C569   1.289   1_545  A
O554       Eu559   2.457       .  S
O555        C568   1.295       .  A
O555       Eu558   2.474       .  S
O556        C565   1.291       .  A
O556       Eu562   2.463       .  S
O557        C566   1.287       .  A
O557       Eu562   2.434   1_545  S
Eu558       O576   2.361       .  S
Eu558       O564   2.354       .  S
Eu559       O563   2.359   1_545  S
Eu559       O574   2.349       .  S
Eu560       O574   2.352   1_665  S
Eu560       O564   2.360       .  S
Eu561       O563   2.351   1_655  S
Eu561       O576   2.366       .  S
Eu562       O563   2.359       .  S
Eu562       O574   2.361   1_565  S
Eu562       O576   2.345   1_455  S
Eu562       O564   2.358   1_455  S
C565       C1926   1.495       .  S
C566       C1526   1.468       .  S
C567       C1106   1.503       .  S
C568       C2126   1.485       .  S
C569       C1006   1.512       .  S
C570       C2097   1.493   1_655  S
C571       C1326   1.498       .  S
C572        C897   1.517       .  S
H573        O574   0.967       .  S
H575        O576   0.968   1_455  S
C577        C578   1.412       .  A
C577        C582   1.411       .  A
C578        C579   1.408       .  A
C578       Br590   1.921       .  S
C579        C580   1.410       .  A
C579       Br594   1.932       .  S
C580        C581   1.413       .  A
C580        C583   1.496       .  S
C581        C582   1.413       .  A
C581       Br589   1.928       .  S
C582       Br593   1.929       .  S
C583        C584   1.410       .  A
C583        C588   1.407   1_455  A
C584        C585   1.414       .  A
C584       Br595   1.928       .  S
C585        C586   1.416   1_455  A
C585       Br591   1.926       .  S
C586        C587   1.430       .  A
C587        C588   1.408       .  A
C587       Br596   1.939       .  S
C588       Br592   1.938       .  S
C597        C598   1.410       .  A
C597        C602   1.412       .  A
C598        C599   1.406       .  A
C598       Br610   1.924       .  S
C599        C600   1.409       .  A
C599       Br614   1.928       .  S
C600        C601   1.406       .  A
C600        C603   1.483       .  S
C601        C602   1.405       .  A
C601       Br609   1.931       .  S
C602       Br613   1.916       .  S
C603        C604   1.413       .  A
C603        C608   1.408       .  A
C604        C605   1.404       .  A
C604       Br615   1.936       .  S
C605        C606   1.407       .  A
C605       Br611   1.924       .  S
C606        C607   1.412       .  A
C607        C608   1.409       .  A
C607       Br616   1.930       .  S
C608       Br612   1.928       .  S
C617        C618   1.421       .  A
C617        C622   1.423       .  A
C618        C619   1.408       .  A
C618       Br630   1.937       .  S
C619        C620   1.410       .  A
C619       Br634   1.935       .  S
C620        C621   1.411       .  A
C620        C623   1.503       .  S
C621        C622   1.419       .  A
C621       Br629   1.930       .  S
C622       Br633   1.928       .  S
C623        C624   1.409       .  A
C623        C628   1.408       .  A
C624        C625   1.416       .  A
C624       Br635   1.932       .  S
C625        C626   1.424       .  A
C625       Br631   1.931       .  S
C626        C627   1.418       .  A
C627        C628   1.414       .  A
C627       Br636   1.908       .  S
C628       Br632   1.935       .  S
C637        C638   1.416       .  A
C637        C642   1.414       .  A
C638        C639   1.407       .  A
C638       Br650   1.914       .  S
C639        C640   1.404       .  A
C639       Br654   1.934       .  S
C640        C641   1.407       .  A
C640        C643   1.477       .  S
C641        C642   1.402       .  A
C641       Br649   1.933       .  S
C642       Br653   1.932       .  S
C643        C644   1.409       .  A
C643        C648   1.414       .  A
C644        C645   1.405       .  A
C644       Br655   1.927       .  S
C645        C646   1.408       .  A
C645       Br651   1.928       .  S
C646        C647   1.402       .  A
C647        C648   1.398       .  A
C647       Br656   1.932       .  S
C648       Br652   1.934       .  S
C657        C658   1.414       .  A
C657        C662   1.414       .  A
C658        C659   1.409       .  A
C658       Br670   1.928       .  S
C659        C660   1.415       .  A
C659       Br674   1.938       .  S
C660        C661   1.413       .  A
C660        C663   1.502       .  S
C661        C662   1.408       .  A
C661       Br669   1.928       .  S
C662       Br673   1.923       .  S
C663        C664   1.411       .  A
C663        C668   1.422       .  A
C664        C665   1.398       .  A
C664       Br675   1.938       .  S
C665        C666   1.417       .  A
C665       Br671   1.933       .  S
C666        C667   1.408       .  A
C667        C668   1.417       .  A
C667       Br676   1.923       .  S
C668       Br672   1.928       .  S
C677        C678   1.409       .  A
C677        C682   1.418       .  A
C678        C679   1.411       .  A
C678       Br690   1.925       .  S
C679        C680   1.410       .  A
C679       Br694   1.926       .  S
C680        C681   1.406       .  A
C680        C683   1.484       .  S
C681        C682   1.400       .  A
C681       Br689   1.929       .  S
C682       Br693   1.941       .  S
C683        C684   1.409       .  A
C683        C688   1.408       .  A
C684        C685   1.410       .  A
C684       Br695   1.928       .  S
C685        C686   1.413       .  A
C685       Br691   1.928       .  S
C686        C687   1.414       .  A
C687        C688   1.403       .  A
C687       Br696   1.928       .  S
C688       Br692   1.935       .  S
C697        C698   1.423       .  A
C697        C702   1.422       .  A
C698        C699   1.412       .  A
C698       Br710   1.933   1_554  S
C699        C700   1.406       .  A
C699       Br714   1.930   1_554  S
C700        C701   1.407       .  A
C700        C703   1.485   1_655  S
C701        C702   1.404       .  A
C701       Br709   1.937   1_655  S
C702       Br713   1.937       .  S
C703        C704   1.406   1_455  A
C703        C708   1.404       .  A
C704        C705   1.411   1_655  A
C704       Br715   1.931       .  S
C705        C706   1.417       .  A
C705       Br711   1.918   1_455  S
C706        C707   1.423       .  A
C707        C708   1.405       .  A
C707       Br716   1.936       .  S
C708       Br712   1.935       .  S
C717        C718   1.416   1_554  A
C717        C722   1.409       .  A
C718        C719   1.402   1_556  A
C718       Br730   1.933       .  S
C719        C720   1.406       .  A
C719       Br734   1.934   1_554  S
C720        C721   1.411       .  A
C720        C723   1.486       .  S
C721        C722   1.413       .  A
C721       Br729   1.926       .  S
C722       Br733   1.925       .  S
C723        C724   1.409       .  A
C723        C728   1.408       .  A
C724        C725   1.405       .  A
C724       Br735   1.935       .  S
C725        C726   1.414       .  A
C725       Br731   1.932       .  S
C726        C727   1.415       .  A
C727        C728   1.412       .  A
C727       Br736   1.931   1_655  S
C728       Br732   1.927   1_655  S
C737        C738   1.423       .  A
C737        C742   1.418       .  A
C738        C739   1.406       .  A
C738       Br750   1.927       .  S
C739        C740   1.402       .  A
C739       Br754   1.934       .  S
C740        C741   1.404       .  A
C740        C743   1.486       .  S
C741        C742   1.411       .  A
C741       Br749   1.932       .  S
C742       Br753   1.917       .  S
C743        C744   1.408       .  A
C743        C748   1.403       .  A
C744        C745   1.405       .  A
C744       Br755   1.936       .  S
C745        C746   1.421       .  A
C745       Br751   1.938       .  S
C746        C747   1.429       .  A
C747        C748   1.412       .  A
C747       Br756   1.936       .  S
C748       Br752   1.932       .  S
C757        C758   1.422       .  A
C757        C762   1.418       .  A
C758        C759   1.412       .  A
C758       Br770   1.922       .  S
C759        C760   1.410       .  A
C759       Br774   1.935   1_455  S
C760        C761   1.407       .  A
C760        C763   1.498   1_455  S
C761        C762   1.411       .  A
C761       Br769   1.931   1_554  S
C762       Br773   1.919       .  S
C763        C764   1.412       .  A
C763        C768   1.405       .  A
C764        C765   1.418       .  A
C764       Br775   1.931   1_655  S
C765        C766   1.422       .  A
C765       Br771   1.922   1_554  S
C766        C767   1.413       .  A
C767        C768   1.402       .  A
C767       Br776   1.918       .  S
C768       Br772   1.931       .  S
C777        C778   1.417       .  A
C777        C782   1.420       .  A
C778        C779   1.412   1_655  A
C778       Br790   1.919       .  S
C779        C780   1.407       .  A
C779       Br794   1.931       .  S
C780        C781   1.407   1_455  A
C780        C783   1.496       .  S
C781        C782   1.412       .  A
C781       Br789   1.931       .  S
C782       Br793   1.925       .  S
C783        C784   1.410       .  A
C783        C788   1.409       .  A
C784        C785   1.410       .  A
C784       Br795   1.934       .  S
C785        C786   1.417       .  A
C785       Br791   1.931       .  S
C786        C787   1.418       .  A
C787        C788   1.415       .  A
C787       Br796   1.931       .  S
C788       Br792   1.928       .  S
C797        C798   1.413       .  A
C797        C802   1.422       .  A
C798        C799   1.416       .  A
C798       Br810   1.924       .  S
C799        C800   1.411       .  A
C799       Br814   1.927       .  S
C800        C801   1.408       .  A
C800        C803   1.496       .  S
C801        C802   1.409       .  A
C801       Br809   1.935       .  S
C802       Br813   1.935       .  S
C803        C804   1.413       .  A
C803        C808   1.412       .  A
C804        C805   1.410       .  A
C804       Br815   1.929       .  S
C805        C806   1.409       .  A
C805       Br811   1.932       .  S
C806        C807   1.408       .  A
C807        C808   1.411       .  A
C807       Br816   1.928       .  S
C808       Br812   1.927       .  S
C817        C818   1.423       .  A
C817        C822   1.419       .  A
C818        C819   1.411       .  A
C818       Br830   1.922       .  S
C819        C820   1.404       .  A
C819       Br834   1.931       .  S
C820        C821   1.408       .  A
C820        C823   1.500       .  S
C821        C822   1.417       .  A
C821       Br829   1.930       .  S
C822       Br833   1.916       .  S
C823        C824   1.407       .  A
C823        C828   1.409       .  A
C824        C825   1.417       .  A
C824       Br835   1.929       .  S
C825        C826   1.425       .  A
C825       Br831   1.932       .  S
C826        C827   1.422       .  A
C827        C828   1.413       .  A
C827       Br836   1.929       .  S
C828       Br832   1.935       .  S
C837        C838   1.411       .  A
C837        C842   1.416       .  A
C838        C839   1.415       .  A
C838       Br850   1.925       .  S
C839        C840   1.412       .  A
C839       Br854   1.927       .  S
C840        C841   1.405       .  A
C840        C843   1.491       .  S
C841        C842   1.403       .  A
C841       Br849   1.932       .  S
C842       Br853   1.929       .  S
C843        C844   1.408       .  A
C843        C848   1.407       .  A
C844        C845   1.405       .  A
C844       Br855   1.938       .  S
C845        C846   1.422       .  A
C845       Br851   1.936       .  S
C846        C847   1.424       .  A
C847        C848   1.416       .  A
C847       Br856   1.931       .  S
C848       Br852   1.930       .  S
C857        C858   1.414       .  A
C857        C862   1.414       .  A
C858        C859   1.403       .  A
C858       Br870   1.927       .  S
C859        C860   1.410       .  A
C859       Br874   1.933       .  S
C860        C861   1.418       .  A
C860        C863   1.502       .  S
C861        C862   1.419       .  A
C861       Br869   1.931       .  S
C862       Br873   1.924       .  S
C863        C864   1.413       .  A
C863        C868   1.407       .  A
C864        C865   1.415       .  A
C864       Br875   1.932       .  S
C865        C866   1.421       .  A
C865       Br871   1.920       .  S
C866        C867   1.416       .  A
C867        C868   1.406       .  A
C867       Br876   1.917       .  S
C868       Br872   1.929       .  S
C877        C878   1.419       .  A
C877        C882   1.410       .  A
C878        C879   1.408       .  A
C878       Br890   1.933       .  S
C879        C880   1.408       .  A
C879       Br894   1.933       .  S
C880        C881   1.414       .  A
C880        C883   1.496       .  S
C881        C882   1.416       .  A
C881       Br889   1.928       .  S
C882       Br893   1.926       .  S
C883        C884   1.412       .  A
C883        C888   1.410       .  A
C884        C885   1.415       .  A
C884       Br895   1.926       .  S
C885        C886   1.413       .  A
C885       Br891   1.930       .  S
C886        C887   1.410       .  A
C887        C888   1.408       .  A
C887       Br896   1.927       .  S
C888       Br892   1.929       .  S
C897        C898   1.427       .  A
C897        C902   1.425       .  A
C898        C899   1.412       .  A
C898       Br910   1.935       .  S
C899        C900   1.408       .  A
C899       Br914   1.936       .  S
C900        C901   1.410       .  A
C900        C903   1.505       .  S
C901        C902   1.420       .  A
C901       Br909   1.929       .  S
C902       Br913   1.931       .  S
C903        C904   1.410       .  A
C903        C908   1.407       .  A
C904        C905   1.417       .  A
C904       Br915   1.930       .  S
C905        C906   1.418       .  A
C905       Br911   1.918       .  S
C906        C907   1.427       .  A
C907        C908   1.414       .  A
C907       Br916   1.934       .  S
C908       Br912   1.933       .  S
C917        C918   1.422       .  A
C917        C922   1.421       .  A
C918        C919   1.418       .  A
C918       Br930   1.927       .  S
C919        C920   1.408       .  A
C919       Br934   1.929       .  S
C920        C921   1.409       .  A
C920        C923   1.501       .  S
C921        C922   1.413       .  A
C921       Br929   1.934       .  S
C922       Br933   1.932       .  S
C923        C924   1.407       .  A
C923        C928   1.408       .  A
C924        C925   1.412       .  A
C924       Br935   1.930       .  S
C925        C926   1.419       .  A
C925       Br931   1.926       .  S
C926        C927   1.420       .  A
C927        C928   1.416       .  A
C927       Br936   1.917       .  S
C928       Br932   1.931       .  S
C937        C938   1.422       .  A
C937        C942   1.413       .  A
C938        C939   1.405       .  A
C938       Br950   1.935       .  S
C939        C940   1.406       .  A
C939       Br954   1.935       .  S
C940        C941   1.413       .  A
C940        C943   1.496       .  S
C941        C942   1.417       .  A
C941       Br949   1.927   1_545  S
C942       Br953   1.926       .  S
C943        C944   1.412   1_545  A
C943        C948   1.413       .  A
C944        C945   1.408       .  A
C944       Br955   1.931       .  S
C945        C946   1.411       .  A
C945       Br951   1.931       .  S
C946        C947   1.412   1_565  A
C947        C948   1.414       .  A
C947       Br956   1.930       .  S
C948       Br952   1.929       .  S
C957        C958   1.422       .  A
C957        C962   1.417   1_545  A
C958        C959   1.410   1_545  A
C958       Br970   1.928       .  S
C959        C960   1.410       .  A
C959       Br974   1.935   1_565  S
C960        C961   1.415       .  A
C960        C963   1.507       .  S
C961        C962   1.420       .  A
C961       Br969   1.931       .  S
C962       Br973   1.923       .  S
C963        C964   1.413       .  A
C963        C968   1.408       .  A
C964        C965   1.418       .  A
C964       Br975   1.933       .  S
C965        C966   1.424       .  A
C965       Br971   1.922       .  S
C966        C967   1.418       .  A
C967        C968   1.410       .  A
C967       Br976   1.919       .  S
C968       Br972   1.929       .  S
C977        C978   1.409       .  A
C977        C982   1.418       .  A
C978        C979   1.413       .  A
C978       Br990   1.926   1_565  S
C979        C980   1.411       .  A
C979       Br994   1.926       .  S
C980        C981   1.405       .  A
C980        C983   1.483       .  S
C981        C982   1.400       .  A
C981       Br989   1.934       .  S
C982       Br993   1.938       .  S
C983        C984   1.406       .  A
C983        C988   1.403       .  A
C984        C985   1.405       .  A
C984       Br995   1.936       .  S
C985        C986   1.420       .  A
C985       Br991   1.931       .  S
C986        C987   1.424       .  A
C987        C988   1.412       .  A
C987       Br996   1.928       .  S
C988       Br992   1.930       .  S
C997        C998   1.416       .  A
C997       C1002   1.425       .  A
C998        C999   1.413       .  A
C998      Br1010   1.919   1_545  S
C999       C1000   1.407       .  A
C999      Br1014   1.929   1_545  S
C1000      C1001   1.406       .  A
C1000      C1003   1.493       .  S
C1001      C1002   1.407       .  A
C1001     Br1009   1.934       .  S
C1002     Br1013   1.937       .  S
C1003      C1004   1.407   1_545  A
C1003      C1008   1.404       .  A
C1004      C1005   1.410       .  A
C1004     Br1015   1.937       .  S
C1005      C1006   1.425       .  A
C1005     Br1011   1.936       .  S
C1006      C1007   1.432   1_565  A
C1007      C1008   1.416       .  A
C1007     Br1016   1.936       .  S
C1008     Br1012   1.933       .  S
C1017      C1018   1.421       .  A
C1017      C1022   1.426       .  A
C1018      C1019   1.405       .  A
C1018     Br1030   1.937       .  S
C1019      C1020   1.410       .  A
C1019     Br1034   1.938       .  S
C1020      C1021   1.406       .  A
C1020      C1023   1.492       .  S
C1021      C1022   1.415       .  A
C1021     Br1029   1.930       .  S
C1022     Br1033   1.934       .  S
C1023      C1024   1.408       .  A
C1023      C1028   1.403       .  A
C1024      C1025   1.413       .  A
C1024     Br1035   1.930       .  S
C1025      C1026   1.417       .  A
C1025     Br1031   1.922       .  S
C1026      C1027   1.423       .  A
C1027      C1028   1.405       .  A
C1027     Br1036   1.932       .  S
C1028     Br1032   1.931       .  S
C1037      C1038   1.421       .  A
C1037      C1042   1.423       .  A
C1038      C1039   1.407       .  A
C1038     Br1050   1.934       .  S
C1039      C1040   1.409       .  A
C1039     Br1054   1.937       .  S
C1040      C1041   1.405       .  A
C1040      C1043   1.490       .  S
C1041      C1042   1.413       .  A
C1041     Br1049   1.929       .  S
C1042     Br1053   1.932       .  S
C1043      C1044   1.410       .  A
C1043      C1048   1.406       .  A
C1044      C1045   1.414       .  A
C1044     Br1055   1.926       .  S
C1045      C1046   1.411       .  A
C1045     Br1051   1.923       .  S
C1046      C1047   1.419       .  A
C1047      C1048   1.404       .  A
C1047     Br1056   1.936       .  S
C1048     Br1052   1.933       .  S
C1057      C1058   1.427       .  A
C1057      C1062   1.420       .  A
C1058      C1059   1.414       .  A
C1058     Br1070   1.919   1_545  S
C1059      C1060   1.407       .  A
C1059     Br1074   1.934       .  S
C1060      C1061   1.403       .  A
C1060      C1063   1.495       .  S
C1061      C1062   1.408       .  A
C1061     Br1069   1.933       .  S
C1062     Br1073   1.915       .  S
C1063      C1064   1.405       .  A
C1063      C1068   1.410       .  A
C1064      C1065   1.406       .  A
C1064     Br1075   1.932       .  S
C1065      C1066   1.417       .  A
C1065     Br1071   1.915       .  S
C1066      C1067   1.420       .  A
C1067      C1068   1.415       .  A
C1067     Br1076   1.918       .  S
C1068     Br1072   1.932       .  S
C1077      C1078   1.417       .  A
C1077      C1082   1.412       .  A
C1078      C1079   1.409   1_565  A
C1078     Br1090   1.930       .  S
C1079      C1080   1.408       .  A
C1079     Br1094   1.932       .  S
C1080      C1081   1.414   1_545  A
C1080      C1083   1.502       .  S
C1081      C1082   1.419       .  A
C1081     Br1089   1.926       .  S
C1082     Br1093   1.924       .  S
C1083      C1084   1.410       .  A
C1083      C1088   1.409       .  A
C1084      C1085   1.419       .  A
C1084     Br1095   1.928   1_545  S
C1085      C1086   1.422       .  A
C1085     Br1091   1.926       .  S
C1086      C1087   1.413       .  A
C1087      C1088   1.412       .  A
C1087     Br1096   1.917       .  S
C1088     Br1092   1.931       .  S
C1097      C1098   1.417       .  A
C1097      C1102   1.422       .  A
C1098      C1099   1.416       .  A
C1098     Br1110   1.916       .  S
C1099      C1100   1.408       .  A
C1099     Br1114   1.929       .  S
C1100      C1101   1.405       .  A
C1100      C1103   1.497       .  S
C1101      C1102   1.410       .  A
C1101     Br1109   1.934       .  S
C1102     Br1113   1.921       .  S
C1103      C1104   1.410       .  A
C1103      C1108   1.408       .  A
C1104      C1105   1.411       .  A
C1104     Br1115   1.935       .  S
C1105      C1106   1.422       .  A
C1105     Br1111   1.937   1_565  S
C1106      C1107   1.422       .  A
C1107      C1108   1.414       .  A
C1107     Br1116   1.934       .  S
C1108     Br1112   1.928       .  S
C1117      C1118   1.425       .  A
C1117      C1122   1.415       .  A
C1118      C1119   1.411       .  A
C1118     Br1130   1.934       .  S
C1119      C1120   1.408       .  A
C1119     Br1134   1.936       .  S
C1120      C1121   1.412       .  A
C1120      C1123   1.503       .  S
C1121      C1122   1.418       .  A
C1121     Br1129   1.928       .  S
C1122     Br1133   1.920       .  S
C1123      C1124   1.414       .  A
C1123      C1128   1.413       .  A
C1124      C1125   1.416       .  A
C1124     Br1135   1.928       .  S
C1125      C1126   1.410       .  A
C1125     Br1131   1.925       .  S
C1126      C1127   1.412       .  A
C1127      C1128   1.412       .  A
C1127     Br1136   1.929       .  S
C1128     Br1132   1.930       .  S
C1137      C1138   1.417       .  A
C1137      C1142   1.414       .  A
C1138      C1139   1.409       .  A
C1138     Br1150   1.917       .  S
C1139      C1140   1.406       .  A
C1139     Br1154   1.933       .  S
C1140      C1141   1.408       .  A
C1140      C1143   1.488       .  S
C1141      C1142   1.409       .  A
C1141     Br1149   1.933       .  S
C1142     Br1153   1.920       .  S
C1143      C1144   1.412       .  A
C1143      C1148   1.414       .  A
C1144      C1145   1.410       .  A
C1144     Br1155   1.928       .  S
C1145      C1146   1.408       .  A
C1145     Br1151   1.922       .  S
C1146      C1147   1.402       .  A
C1147      C1148   1.401       .  A
C1147     Br1156   1.929       .  S
C1148     Br1152   1.931       .  S
C1157      C1158   1.411       .  A
C1157      C1162   1.414       .  A
C1158      C1159   1.422       .  A
C1158     Br1170   1.921       .  S
C1159      C1160   1.419       .  A
C1159     Br1174   1.925       .  S
C1160      C1161   1.411       .  A
C1160      C1163   1.508       .  S
C1161      C1162   1.402       .  A
C1161     Br1169   1.932       .  S
C1162     Br1173   1.932       .  S
C1163      C1164   1.417       .  A
C1163      C1168   1.410       .  A
C1164      C1165   1.425       .  A
C1164     Br1175   1.928       .  S
C1165      C1166   1.419       .  A
C1165     Br1171   1.922       .  S
C1166      C1167   1.412       .  A
C1167      C1168   1.401       .  A
C1167     Br1176   1.924       .  S
C1168     Br1172   1.931       .  S
C1177      C1178   1.429       .  A
C1177      C1182   1.429   1_545  A
C1178      C1179   1.416       .  A
C1178     Br1190   1.935       .  S
C1179      C1180   1.405       .  A
C1179     Br1194   1.931       .  S
C1180      C1181   1.407   1_545  A
C1180      C1183   1.493       .  S
C1181      C1182   1.408       .  A
C1181     Br1189   1.939       .  S
C1182     Br1193   1.940       .  S
C1183      C1184   1.405       .  A
C1183      C1188   1.408       .  A
C1184      C1185   1.407   1_545  A
C1184     Br1195   1.936       .  S
C1185      C1186   1.425   1_565  A
C1185     Br1191   1.931       .  S
C1186      C1187   1.416       .  A
C1187      C1188   1.413       .  A
C1187     Br1196   1.919       .  S
C1188     Br1192   1.929       .  S
C1197      C1198   1.424       .  A
C1197      C1202   1.421       .  A
C1198      C1199   1.414       .  A
C1198     Br1210   1.931       .  S
C1199      C1200   1.406       .  A
C1199     Br1214   1.930       .  S
C1200      C1201   1.406       .  A
C1200      C1203   1.487       .  S
C1201      C1202   1.406       .  A
C1201     Br1209   1.935       .  S
C1202     Br1213   1.933       .  S
C1203      C1204   1.407       .  A
C1203      C1208   1.410       .  A
C1204      C1205   1.405       .  A
C1204     Br1215   1.933       .  S
C1205      C1206   1.417       .  A
C1205     Br1211   1.937       .  S
C1206      C1207   1.410       .  A
C1207      C1208   1.412       .  A
C1207     Br1216   1.926       .  S
C1208     Br1212   1.928       .  S
C1217      C1218   1.409       .  A
C1217      C1222   1.407       .  A
C1218      C1219   1.410       .  A
C1218     Br1230   1.930       .  S
C1219      C1220   1.411       .  A
C1219     Br1234   1.928       .  S
C1220      C1221   1.414       .  A
C1220      C1223   1.488       .  S
C1221      C1222   1.404       .  A
C1221     Br1229   1.935       .  S
C1222     Br1233   1.928       .  S
C1223      C1224   1.407       .  A
C1223      C1228   1.408       .  A
C1224      C1225   1.409       .  A
C1224     Br1235   1.932       .  S
C1225      C1226   1.415       .  A
C1225     Br1231   1.918       .  S
C1226      C1227   1.413       .  A
C1227      C1228   1.408       .  A
C1227     Br1236   1.919       .  S
C1228     Br1232   1.931       .  S
C1237      C1238   1.423       .  A
C1237      C1242   1.414       .  A
C1238      C1239   1.407   1_655  A
C1238     Br1250   1.933       .  S
C1239      C1240   1.407       .  A
C1239     Br1254   1.937       .  S
C1240      C1241   1.410   1_455  A
C1240      C1243   1.494       .  S
C1241      C1242   1.415       .  A
C1241     Br1249   1.928   1_655  S
C1242     Br1253   1.920       .  S
C1243      C1244   1.413       .  A
C1243      C1248   1.411       .  A
C1244      C1245   1.411       .  A
C1244     Br1255   1.928       .  S
C1245      C1246   1.409       .  A
C1245     Br1251   1.929       .  S
C1246      C1247   1.412       .  A
C1247      C1248   1.410       .  A
C1247     Br1256   1.929       .  S
C1248     Br1252   1.931       .  S
C1257      C1258   1.426       .  A
C1257      C1262   1.412       .  A
C1258      C1259   1.421       .  A
C1258     Br1270   1.919       .  S
C1259      C1260   1.410       .  A
C1259     Br1274   1.932       .  S
C1260      C1261   1.406       .  A
C1260      C1263   1.499       .  S
C1261      C1262   1.401       .  A
C1261     Br1269   1.931       .  S
C1262     Br1273   1.915       .  S
C1263      C1264   1.415       .  A
C1263      C1268   1.409       .  A
C1264      C1265   1.419       .  A
C1264     Br1275   1.927       .  S
C1265      C1266   1.412       .  A
C1265     Br1271   1.921       .  S
C1266      C1267   1.415       .  A
C1267      C1268   1.401       .  A
C1267     Br1276   1.932       .  S
C1268     Br1272   1.934       .  S
C1277      C1278   1.423       .  A
C1277      C1282   1.417   1_455  A
C1278      C1279   1.406   1_455  A
C1278     Br1290   1.929       .  S
C1279      C1280   1.402       .  A
C1279     Br1294   1.933       .  S
C1280      C1281   1.404       .  A
C1280      C1283   1.484       .  S
C1281      C1282   1.409       .  A
C1281     Br1289   1.931       .  S
C1282     Br1293   1.916   1_655  S
C1283      C1284   1.398       .  A
C1283      C1288   1.404       .  A
C1284      C1285   1.412       .  A
C1284     Br1295   1.934       .  S
C1285      C1286   1.439       .  A
C1285     Br1291   1.944       .  S
C1286      C1287   1.433       .  A
C1287      C1288   1.408       .  A
C1287     Br1296   1.942       .  S
C1288     Br1292   1.941       .  S
C1297      C1298   1.418       .  A
C1297      C1302   1.409       .  A
C1298      C1299   1.405       .  A
C1298     Br1310   1.937       .  S
C1299      C1300   1.408       .  A
C1299     Br1314   1.934       .  S
C1300      C1301   1.411       .  A
C1300      C1303   1.491       .  S
C1301      C1302   1.413       .  A
C1301     Br1309   1.928       .  S
C1302     Br1313   1.924       .  S
C1303      C1304   1.406       .  A
C1303      C1308   1.408       .  A
C1304      C1305   1.415       .  A
C1304     Br1315   1.931       .  S
C1305      C1306   1.428       .  A
C1305     Br1311   1.937       .  S
C1306      C1307   1.424       .  A
C1307      C1308   1.404       .  A
C1307     Br1316   1.940       .  S
C1308     Br1312   1.936       .  S
C1317      C1318   1.424       .  A
C1317      C1322   1.418       .  A
C1318      C1319   1.408       .  A
C1318     Br1330   1.928       .  S
C1319      C1320   1.405       .  A
C1319     Br1334   1.936       .  S
C1320      C1321   1.406       .  A
C1320      C1323   1.492       .  S
C1321      C1322   1.414       .  A
C1321     Br1329   1.929       .  S
C1322     Br1333   1.915       .  S
C1323      C1324   1.408       .  A
C1323      C1328   1.409       .  A
C1324      C1325   1.415       .  A
C1324     Br1335   1.929       .  S
C1325      C1326   1.423       .  A
C1325     Br1331   1.933       .  S
C1326      C1327   1.420       .  A
C1327      C1328   1.405       .  A
C1327     Br1336   1.936       .  S
C1328     Br1332   1.936       .  S
C1337      C1338   1.417       .  A
C1337      C1342   1.410       .  A
C1338      C1339   1.406       .  A
C1338     Br1350   1.933       .  S
C1339      C1340   1.408       .  A
C1339     Br1354   1.933       .  S
C1340      C1341   1.413       .  A
C1340      C1343   1.496       .  S
C1341      C1342   1.416       .  A
C1341     Br1349   1.927       .  S
C1342     Br1353   1.926       .  S
C1343      C1344   1.408       .  A
C1343      C1348   1.406       .  A
C1344      C1345   1.418       .  A
C1344     Br1355   1.930       .  S
C1345      C1346   1.425       .  A
C1345     Br1351   1.931       .  S
C1346      C1347   1.428       .  A
C1347      C1348   1.408       .  A
C1347     Br1356   1.937       .  S
C1348     Br1352   1.937       .  S
C1357      C1358   1.418       .  A
C1357      C1362   1.423       .  A
C1358      C1359   1.405       .  A
C1358     Br1370   1.918       .  S
C1359      C1360   1.404       .  A
C1359     Br1374   1.933       .  S
C1360      C1361   1.410       .  A
C1360      C1363   1.493       .  S
C1361      C1362   1.414       .  A
C1361     Br1369   1.935       .  S
C1362     Br1373   1.920       .  S
C1363      C1364   1.411       .  A
C1363      C1368   1.405       .  A
C1364      C1365   1.415       .  A
C1364     Br1375   1.934       .  S
C1365      C1366   1.421       .  A
C1365     Br1371   1.919       .  S
C1366      C1367   1.413       .  A
C1367      C1368   1.403       .  A
C1367     Br1376   1.917       .  S
C1368     Br1372   1.932       .  S
C1377      C1378   1.412       .  A
C1377      C1382   1.410       .  A
C1378      C1379   1.409       .  A
C1378     Br1390   1.929   1_554  S
C1379      C1380   1.409       .  A
C1379     Br1394   1.928   1_554  S
C1380      C1381   1.412       .  A
C1380      C1383   1.482       .  S
C1381      C1382   1.401       .  A
C1381     Br1389   1.936       .  S
C1382     Br1393   1.933       .  S
C1383      C1384   1.410       .  A
C1383      C1388   1.407       .  A
C1384      C1385   1.410       .  A
C1384     Br1395   1.929   1_565  S
C1385      C1386   1.411       .  A
C1385     Br1391   1.925       .  S
C1386      C1387   1.419       .  A
C1387      C1388   1.402       .  A
C1387     Br1396   1.939       .  S
C1388     Br1392   1.935       .  S
C1397      C1398   1.423       .  A
C1397      C1402   1.414       .  A
C1398      C1399   1.403       .  A
C1398     Br1410   1.939       .  S
C1399      C1400   1.404       .  A
C1399     Br1414   1.935       .  S
C1400      C1401   1.404       .  A
C1400      C1403   1.478       .  S
C1401      C1402   1.407       .  A
C1401     Br1409   1.930       .  S
C1402     Br1413   1.920       .  S
C1403      C1404   1.406       .  A
C1403      C1408   1.400       .  A
C1404      C1405   1.404       .  A
C1404     Br1415   1.937       .  S
C1405      C1406   1.423       .  A
C1405     Br1411   1.936       .  S
C1406      C1407   1.427       .  A
C1407      C1408   1.407       .  A
C1407     Br1416   1.935       .  S
C1408     Br1412   1.931       .  S
C1417      C1418   1.416       .  A
C1417      C1422   1.418       .  A
C1418      C1419   1.409       .  A
C1418     Br1430   1.927       .  S
C1419      C1420   1.405       .  A
C1419     Br1434   1.927       .  S
C1420      C1421   1.407       .  A
C1420      C1423   1.483       .  S
C1421      C1422   1.403       .  A
C1421     Br1429   1.936       .  S
C1422     Br1433   1.931       .  S
C1423      C1424   1.404       .  A
C1423      C1428   1.403       .  A
C1424      C1425   1.411       .  A
C1424     Br1435   1.931       .  S
C1425      C1426   1.417       .  A
C1425     Br1431   1.915   1_545  S
C1426      C1427   1.420       .  A
C1427      C1428   1.405       .  A
C1427     Br1436   1.918       .  S
C1428     Br1432   1.935       .  S
C1437      C1438   1.417   1_544  A
C1437      C1442   1.412       .  A
C1438      C1439   1.404   1_556  A
C1438     Br1450   1.930       .  S
C1439      C1440   1.406       .  A
C1439     Br1454   1.934   1_554  S
C1440      C1441   1.409       .  A
C1440      C1443   1.488       .  S
C1441      C1442   1.413   1_565  A
C1441     Br1449   1.926       .  S
C1442     Br1453   1.922       .  S
C1443      C1444   1.411   1_565  A
C1443      C1448   1.408       .  A
C1444      C1445   1.407       .  A
C1444     Br1455   1.934       .  S
C1445      C1446   1.413   1_545  A
C1445     Br1451   1.932       .  S
C1446      C1447   1.415       .  A
C1447      C1448   1.411       .  A
C1447     Br1456   1.930       .  S
C1448     Br1452   1.928       .  S
C1457      C1458   1.412       .  A
C1457      C1462   1.416   1_545  A
C1458      C1459   1.401       .  A
C1458     Br1470   1.921       .  S
C1459      C1460   1.407   1_545  A
C1459     Br1474   1.932       .  S
C1460      C1461   1.412       .  A
C1460      C1463   1.494       .  S
C1461      C1462   1.416       .  A
C1461     Br1469   1.930       .  S
C1462     Br1473   1.920   1_554  S
C1463      C1464   1.406       .  A
C1463      C1468   1.407       .  A
C1464      C1465   1.410       .  A
C1464     Br1475   1.931       .  S
C1465      C1466   1.422       .  A
C1465     Br1471   1.918       .  S
C1466      C1467   1.420       .  A
C1467      C1468   1.408       .  A
C1467     Br1476   1.916       .  S
C1468     Br1472   1.935       .  S
C1477      C1478   1.416       .  A
C1477      C1482   1.422       .  A
C1478      C1479   1.416       .  A
C1478     Br1490   1.920       .  S
C1479      C1480   1.410       .  A
C1479     Br1494   1.929       .  S
C1480      C1481   1.406       .  A
C1480      C1483   1.490       .  S
C1481      C1482   1.403       .  A
C1481     Br1489   1.938       .  S
C1482     Br1493   1.937       .  S
C1483      C1484   1.406       .  A
C1483      C1488   1.411       .  A
C1484      C1485   1.408       .  A
C1484     Br1495   1.932       .  S
C1485      C1486   1.420       .  A
C1485     Br1491   1.929       .  S
C1486      C1487   1.418       .  A
C1487      C1488   1.409       .  A
C1487     Br1496   1.933       .  S
C1488     Br1492   1.933       .  S
C1497      C1498   1.419       .  A
C1497      C1502   1.410       .  A
C1498      C1499   1.403       .  A
C1498     Br1510   1.942       .  S
C1499      C1500   1.407       .  A
C1499     Br1514   1.931       .  S
C1500      C1501   1.411       .  A
C1500      C1503   1.491       .  S
C1501      C1502   1.413       .  A
C1501     Br1509   1.926       .  S
C1502     Br1513   1.926       .  S
C1503      C1504   1.411       .  A
C1503      C1508   1.407       .  A
C1504      C1505   1.409       .  A
C1504     Br1515   1.932       .  S
C1505      C1506   1.413       .  A
C1505     Br1511   1.929       .  S
C1506      C1507   1.417       .  A
C1507      C1508   1.412       .  A
C1507     Br1516   1.928       .  S
C1508     Br1512   1.929       .  S
C1517      C1518   1.433       .  A
C1517      C1522   1.423       .  A
C1518      C1519   1.406       .  A
C1518     Br1530   1.939       .  S
C1519      C1520   1.401       .  A
C1519     Br1534   1.938       .  S
C1520      C1521   1.404       .  A
C1520      C1523   1.484       .  S
C1521      C1522   1.414       .  A
C1521     Br1529   1.933       .  S
C1522     Br1533   1.917       .  S
C1523      C1524   1.409       .  A
C1523      C1528   1.411       .  A
C1524      C1525   1.406       .  A
C1524     Br1535   1.930       .  S
C1525      C1526   1.410       .  A
C1525     Br1531   1.931       .  S
C1526      C1527   1.406       .  A
C1527      C1528   1.406       .  A
C1527     Br1536   1.932       .  S
C1528     Br1532   1.928       .  S
C1537      C1538   1.423       .  A
C1537      C1542   1.421       .  A
C1538      C1539   1.418       .  A
C1538     Br1550   1.930       .  S
C1539      C1540   1.409       .  A
C1539     Br1554   1.929       .  S
C1540      C1541   1.409       .  A
C1540      C1543   1.500       .  S
C1541      C1542   1.411       .  A
C1541     Br1549   1.935       .  S
C1542     Br1553   1.932       .  S
C1543      C1544   1.410       .  A
C1543      C1548   1.408       .  A
C1544      C1545   1.414       .  A
C1544     Br1555   1.926       .  S
C1545      C1546   1.412       .  A
C1545     Br1551   1.928       .  S
C1546      C1547   1.419       .  A
C1547      C1548   1.412       .  A
C1547     Br1556   1.927       .  S
C1548     Br1552   1.932       .  S
C1557      C1558   1.431       .  A
C1557      C1562   1.415       .  A
C1558      C1559   1.412       .  A
C1558     Br1570   1.931       .  S
C1559      C1560   1.408       .  A
C1559     Br1574   1.936       .  S
C1560      C1561   1.411       .  A
C1560      C1563   1.504       .  S
C1561      C1562   1.415       .  A
C1561     Br1569   1.931       .  S
C1562     Br1573   1.914       .  S
C1563      C1564   1.410       .  A
C1563      C1568   1.410       .  A
C1564      C1565   1.412       .  A
C1564     Br1575   1.933       .  S
C1565      C1566   1.419       .  A
C1565     Br1571   1.916       .  S
C1566      C1567   1.419       .  A
C1567      C1568   1.412       .  A
C1567     Br1576   1.920       .  S
C1568     Br1572   1.932       .  S
C1577      C1578   1.419       .  A
C1577      C1582   1.418       .  A
C1578      C1579   1.409       .  A
C1578     Br1590   1.915       .  S
C1579      C1580   1.404       .  A
C1579     Br1594   1.934       .  S
C1580      C1581   1.406       .  A
C1580      C1583   1.491       .  S
C1581      C1582   1.412       .  A
C1581     Br1589   1.931       .  S
C1582     Br1593   1.920       .  S
C1583      C1584   1.405       .  A
C1583      C1588   1.402       .  A
C1584      C1585   1.410       .  A
C1584     Br1595   1.938       .  S
C1585      C1586   1.431       .  A
C1585     Br1591   1.940       .  S
C1586      C1587   1.434       .  A
C1587      C1588   1.414       .  A
C1587     Br1596   1.938       .  S
C1588     Br1592   1.933       .  S
C1597      C1598   1.407       .  A
C1597      C1602   1.413       .  A
C1598      C1599   1.407       .  A
C1598     Br1610   1.928       .  S
C1599      C1600   1.412       .  A
C1599     Br1614   1.930   1_455  S
C1600      C1601   1.409       .  A
C1600      C1603   1.489       .  S
C1601      C1602   1.410       .  A
C1601     Br1609   1.927       .  S
C1602     Br1613   1.929       .  S
C1603      C1604   1.404   1_455  A
C1603      C1608   1.403       .  A
C1604      C1605   1.413       .  A
C1604     Br1615   1.931       .  S
C1605      C1606   1.420       .  A
C1605     Br1611   1.910       .  S
C1606      C1607   1.424       .  A
C1607      C1608   1.409   1_655  A
C1607     Br1616   1.926       .  S
C1608     Br1612   1.934       .  S
C1617      C1618   1.417       .  A
C1617      C1622   1.407       .  A
C1618      C1619   1.403       .  A
C1618     Br1630   1.938       .  S
C1619      C1620   1.409       .  A
C1619     Br1634   1.930       .  S
C1620      C1621   1.414       .  A
C1620      C1623   1.493       .  S
C1621      C1622   1.413       .  A
C1621     Br1629   1.925       .  S
C1622     Br1633   1.926       .  S
C1623      C1624   1.413       .  A
C1623      C1628   1.412       .  A
C1624      C1625   1.407       .  A
C1624     Br1635   1.933       .  S
C1625      C1626   1.409       .  A
C1625     Br1631   1.928       .  S
C1626      C1627   1.414       .  A
C1627      C1628   1.414       .  A
C1627     Br1636   1.929       .  S
C1628     Br1632   1.929       .  S
C1637      C1638   1.426       .  A
C1637      C1642   1.417       .  A
C1638      C1639   1.405       .  A
C1638     Br1650   1.941       .  S
C1639      C1640   1.406       .  A
C1639     Br1654   1.937       .  S
C1640      C1641   1.406       .  A
C1640      C1643   1.487       .  S
C1641      C1642   1.412       .  A
C1641     Br1649   1.931       .  S
C1642     Br1653   1.918       .  S
C1643      C1644   1.408       .  A
C1643      C1648   1.404       .  A
C1644      C1645   1.408       .  A
C1644     Br1655   1.935       .  S
C1645      C1646   1.422       .  A
C1645     Br1651   1.935       .  S
C1646      C1647   1.423       .  A
C1647      C1648   1.409       .  A
C1647     Br1656   1.933       .  S
C1648     Br1652   1.931       .  S
C1657      C1658   1.424       .  A
C1657      C1662   1.426       .  A
C1658      C1659   1.412       .  A
C1658     Br1670   1.924       .  S
C1659      C1660   1.410       .  A
C1659     Br1674   1.931       .  S
C1660      C1661   1.409       .  A
C1660      C1663   1.506       .  S
C1661      C1662   1.413       .  A
C1661     Br1669   1.937       .  S
C1662     Br1673   1.917       .  S
C1663      C1664   1.415       .  A
C1663      C1668   1.412       .  A
C1664      C1665   1.413       .  A
C1664     Br1675   1.933       .  S
C1665      C1666   1.410       .  A
C1665     Br1671   1.915       .  S
C1666      C1667   1.420       .  A
C1667      C1668   1.413       .  A
C1667     Br1676   1.933       .  S
C1668     Br1672   1.933       .  S
C1677      C1678   1.418       .  A
C1677      C1682   1.418       .  A
C1678      C1679   1.415       .  A
C1678     Br1690   1.922       .  S
C1679      C1680   1.409   1_565  A
C1679     Br1694   1.930   1_565  S
C1680      C1681   1.406       .  A
C1680      C1683   1.499       .  S
C1681      C1682   1.413   1_545  A
C1681     Br1689   1.930       .  S
C1682     Br1693   1.922       .  S
C1683      C1684   1.409       .  A
C1683      C1688   1.409       .  A
C1684      C1685   1.410       .  A
C1684     Br1695   1.935       .  S
C1685      C1686   1.422       .  A
C1685     Br1691   1.933       .  S
C1686      C1687   1.419       .  A
C1687      C1688   1.417       .  A
C1687     Br1696   1.927       .  S
C1688     Br1692   1.928   1_545  S
C1697      C1698   1.418       .  A
C1697      C1702   1.425       .  A
C1698      C1699   1.420       .  A
C1698     Br1710   1.925       .  S
C1699      C1700   1.414       .  A
C1699     Br1714   1.929       .  S
C1700      C1701   1.406       .  A
C1700      C1703   1.501       .  S
C1701      C1702   1.407       .  A
C1701     Br1709   1.937       .  S
C1702     Br1713   1.935   1_565  S
C1703      C1704   1.412       .  A
C1703      C1708   1.415       .  A
C1704      C1705   1.412       .  A
C1704     Br1715   1.931   1_455  S
C1705      C1706   1.415       .  A
C1705     Br1711   1.930   1_455  S
C1706      C1707   1.409       .  A
C1707      C1708   1.413       .  A
C1707     Br1716   1.930       .  S
C1708     Br1712   1.929       .  S
C1717      C1718   1.410       .  A
C1717      C1722   1.416   1_455  A
C1718      C1719   1.412   1_455  A
C1718     Br1730   1.923       .  S
C1719      C1720   1.408       .  A
C1719     Br1734   1.926       .  S
C1720      C1721   1.407       .  A
C1720      C1723   1.484       .  S
C1721      C1722   1.403       .  A
C1721     Br1729   1.936       .  S
C1722     Br1733   1.930   1_655  S
C1723      C1724   1.404       .  A
C1723      C1728   1.406       .  A
C1724      C1725   1.403       .  A
C1724     Br1735   1.937       .  S
C1725      C1726   1.422       .  A
C1725     Br1731   1.933       .  S
C1726      C1727   1.419       .  A
C1727      C1728   1.413       .  A
C1727     Br1736   1.927       .  S
C1728     Br1732   1.929       .  S
C1737      C1738   1.411       .  A
C1737      C1742   1.413       .  A
C1738      C1739   1.413       .  A
C1738     Br1750   1.918       .  S
C1739      C1740   1.411       .  A
C1739     Br1754   1.929       .  S
C1740      C1741   1.415       .  A
C1740      C1743   1.499       .  S
C1741      C1742   1.411       .  A
C1741     Br1749   1.933       .  S
C1742     Br1753   1.932       .  S
C1743      C1744   1.406       .  A
C1743      C1748   1.410       .  A
C1744      C1745   1.411       .  A
C1744     Br1755   1.932       .  S
C1745      C1746   1.422       .  A
C1745     Br1751   1.919       .  S
C1746      C1747   1.414       .  A
C1747      C1748   1.413       .  A
C1747     Br1756   1.916       .  S
C1748     Br1752   1.930       .  S
C1757      C1758   1.422       .  A
C1757      C1762   1.415       .  A
C1758      C1759   1.418       .  A
C1758     Br1770   1.922       .  S
C1759      C1760   1.413       .  A
C1759     Br1774   1.932       .  S
C1760      C1761   1.407       .  A
C1760      C1763   1.501       .  S
C1761      C1762   1.404       .  A
C1761     Br1769   1.930       .  S
C1762     Br1773   1.920       .  S
C1763      C1764   1.409       .  A
C1763      C1768   1.416       .  A
C1764      C1765   1.406       .  A
C1764     Br1775   1.933       .  S
C1765      C1766   1.420       .  A
C1765     Br1771   1.929       .  S
C1766      C1767   1.412       .  A
C1767      C1768   1.418       .  A
C1767     Br1776   1.921       .  S
C1768     Br1772   1.930       .  S
C1777      C1778   1.425       .  A
C1777      C1782   1.418       .  A
C1778      C1779   1.407       .  A
C1778     Br1790   1.937       .  S
C1779      C1780   1.405       .  A
C1779     Br1794   1.934       .  S
C1780      C1781   1.406       .  A
C1780      C1783   1.490       .  S
C1781      C1782   1.412       .  A
C1781     Br1789   1.931       .  S
C1782     Br1793   1.916       .  S
C1783      C1784   1.408       .  A
C1783      C1788   1.404       .  A
C1784      C1785   1.408       .  A
C1784     Br1795   1.936       .  S
C1785      C1786   1.424       .  A
C1785     Br1791   1.937       .  S
C1786      C1787   1.424       .  A
C1787      C1788   1.411       .  A
C1787     Br1796   1.933       .  S
C1788     Br1792   1.930       .  S
C1797      C1798   1.416       .  A
C1797      C1802   1.408       .  A
C1798      C1799   1.401       .  A
C1798     Br1810   1.940       .  S
C1799      C1800   1.408       .  A
C1799     Br1814   1.932       .  S
C1800      C1801   1.414       .  A
C1800      C1803   1.488       .  S
C1801      C1802   1.413       .  A
C1801     Br1809   1.927       .  S
C1802     Br1813   1.926   1_565  S
C1803      C1804   1.411       .  A
C1803      C1808   1.412       .  A
C1804      C1805   1.405       .  A
C1804     Br1815   1.932       .  S
C1805      C1806   1.408       .  A
C1805     Br1811   1.928       .  S
C1806      C1807   1.412       .  A
C1807      C1808   1.412       .  A
C1807     Br1816   1.930       .  S
C1808     Br1812   1.929       .  S
C1817      C1818   1.414       .  A
C1817      C1822   1.417       .  A
C1818      C1819   1.408       .  A
C1818     Br1830   1.932       .  S
C1819      C1820   1.411       .  A
C1819     Br1834   1.934       .  S
C1820      C1821   1.407       .  A
C1820      C1823   1.490       .  S
C1821      C1822   1.412       .  A
C1821     Br1829   1.928       .  S
C1822     Br1833   1.930       .  S
C1823      C1824   1.406       .  A
C1823      C1828   1.410       .  A
C1824      C1825   1.406       .  A
C1824     Br1835   1.932       .  S
C1825      C1826   1.418       .  A
C1825     Br1831   1.933       .  S
C1826      C1827   1.410       .  A
C1827      C1828   1.413       .  A
C1827     Br1836   1.922       .  S
C1828     Br1832   1.926   1_545  S
C1837      C1838   1.422       .  A
C1837      C1842   1.417       .  A
C1838      C1839   1.408       .  A
C1838     Br1850   1.926       .  S
C1839      C1840   1.405       .  A
C1839     Br1854   1.934       .  S
C1840      C1841   1.406       .  A
C1840      C1843   1.492       .  S
C1841      C1842   1.413       .  A
C1841     Br1849   1.930       .  S
C1842     Br1853   1.919       .  S
C1843      C1844   1.405       .  A
C1843      C1848   1.406       .  A
C1844      C1845   1.405       .  A
C1844     Br1855   1.937       .  S
C1845      C1846   1.426       .  A
C1845     Br1851   1.938       .  S
C1846      C1847   1.425       .  A
C1847      C1848   1.416       .  A
C1847     Br1856   1.932       .  S
C1848     Br1852   1.929       .  S
C1857      C1858   1.419       .  A
C1857      C1862   1.413       .  A
C1858      C1859   1.417       .  A
C1858     Br1870   1.921       .  S
C1859      C1860   1.414       .  A
C1859     Br1874   1.932       .  S
C1860      C1861   1.406       .  A
C1860      C1863   1.497       .  S
C1861      C1862   1.402       .  A
C1861     Br1869   1.932       .  S
C1862     Br1873   1.918       .  S
C1863      C1864   1.411       .  A
C1863      C1868   1.407       .  A
C1864      C1865   1.413       .  A
C1864     Br1875   1.935       .  S
C1865      C1866   1.422       .  A
C1865     Br1871   1.924       .  S
C1866      C1867   1.417       .  A
C1867      C1868   1.408       .  A
C1867     Br1876   1.917       .  S
C1868     Br1872   1.933       .  S
C1877      C1878   1.408       .  A
C1877      C1882   1.414       .  A
C1878      C1879   1.412       .  A
C1878     Br1890   1.926       .  S
C1879      C1880   1.412       .  A
C1879     Br1894   1.927       .  S
C1880      C1881   1.410       .  A
C1880      C1883   1.491   1_565  S
C1881      C1882   1.406       .  A
C1881     Br1889   1.937   1_565  S
C1882     Br1893   1.924       .  S
C1883      C1884   1.411       .  A
C1883      C1888   1.412       .  A
C1884      C1885   1.407       .  A
C1884     Br1895   1.929       .  S
C1885      C1886   1.408       .  A
C1885     Br1891   1.929       .  S
C1886      C1887   1.409       .  A
C1887      C1888   1.408       .  A
C1887     Br1896   1.930       .  S
C1888     Br1892   1.930   1_545  S
C1897      C1898   1.411       .  A
C1897      C1902   1.413       .  A
C1898      C1899   1.409       .  A
C1898     Br1910   1.924       .  S
C1899      C1900   1.410       .  A
C1899     Br1914   1.930       .  S
C1900      C1901   1.410       .  A
C1900      C1903   1.492       .  S
C1901      C1902   1.410       .  A
C1901     Br1909   1.931       .  S
C1902     Br1913   1.925       .  S
C1903      C1904   1.406       .  A
C1903      C1908   1.402       .  A
C1904      C1905   1.417       .  A
C1904     Br1915   1.932       .  S
C1905      C1906   1.424       .  A
C1905     Br1911   1.917       .  S
C1906      C1907   1.435       .  A
C1907      C1908   1.407       .  A
C1907     Br1916   1.940       .  S
C1908     Br1912   1.941       .  S
C1917      C1918   1.409       .  A
C1917      C1922   1.420       .  A
C1918      C1919   1.415       .  A
C1918     Br1930   1.925       .  S
C1919      C1920   1.413       .  A
C1919     Br1934   1.926       .  S
C1920      C1921   1.408       .  A
C1920      C1923   1.497       .  S
C1921      C1922   1.408       .  A
C1921     Br1929   1.933   1_455  S
C1922     Br1933   1.937   1_455  S
C1923      C1924   1.409       .  A
C1923      C1928   1.411   1_455  A
C1924      C1925   1.413       .  A
C1924     Br1935   1.929       .  S
C1925      C1926   1.418       .  A
C1925     Br1931   1.932       .  S
C1926      C1927   1.416   1_455  A
C1927      C1928   1.412       .  A
C1927     Br1936   1.932       .  S
C1928     Br1932   1.932       .  S
C1937      C1938   1.425       .  A
C1937      C1942   1.418       .  A
C1938      C1939   1.406       .  A
C1938     Br1950   1.932       .  S
C1939      C1940   1.403       .  A
C1939     Br1954   1.935       .  S
C1940      C1941   1.407       .  A
C1940      C1943   1.488       .  S
C1941      C1942   1.413       .  A
C1941     Br1949   1.931       .  S
C1942     Br1953   1.918   1_655  S
C1943      C1944   1.408       .  A
C1943      C1948   1.405       .  A
C1944      C1945   1.407       .  A
C1944     Br1955   1.935       .  S
C1945      C1946   1.422       .  A
C1945     Br1951   1.937       .  S
C1946      C1947   1.427       .  A
C1947      C1948   1.411       .  A
C1947     Br1956   1.936       .  S
C1948     Br1952   1.932       .  S
C1957      C1958   1.422       .  A
C1957      C1962   1.417       .  A
C1958      C1959   1.420       .  A
C1958     Br1970   1.921       .  S
C1959      C1960   1.415       .  A
C1959     Br1974   1.933       .  S
C1960      C1961   1.408       .  A
C1960      C1963   1.509       .  S
C1961      C1962   1.410       .  A
C1961     Br1969   1.932       .  S
C1962     Br1973   1.917       .  S
C1963      C1964   1.414       .  A
C1963      C1968   1.408       .  A
C1964      C1965   1.418       .  A
C1964     Br1975   1.930       .  S
C1965      C1966   1.417       .  A
C1965     Br1971   1.922       .  S
C1966      C1967   1.431       .  A
C1967      C1968   1.413       .  A
C1967     Br1976   1.932       .  S
C1968     Br1972   1.935       .  S
C1977      C1978   1.416       .  A
C1977      C1982   1.417       .  A
C1978      C1979   1.407       .  A
C1978     Br1990   1.917       .  S
C1979      C1980   1.403       .  A
C1979     Br1994   1.931       .  S
C1980      C1981   1.402       .  A
C1980      C1983   1.474       .  S
C1981      C1982   1.403       .  A
C1981     Br1989   1.936       .  S
C1982     Br1993   1.918       .  S
C1983      C1984   1.408       .  A
C1983      C1988   1.405       .  A
C1984      C1985   1.397       .  A
C1984     Br1995   1.937       .  S
C1985      C1986   1.414       .  A
C1985     Br1991   1.935       .  S
C1986      C1987   1.414       .  A
C1987      C1988   1.407       .  A
C1987     Br1996   1.931   1_554  S
C1988     Br1992   1.926   1_554  S
C1997      C1998   1.412       .  A
C1997      C2002   1.410       .  A
C1998      C1999   1.411       .  A
C1998     Br2010   1.929       .  S
C1999      C2000   1.411       .  A
C1999     Br2014   1.930       .  S
C2000      C2001   1.410       .  A
C2000      C2003   1.495       .  S
C2001      C2002   1.411       .  A
C2001     Br2009   1.930       .  S
C2002     Br2013   1.920       .  S
C2003      C2004   1.412       .  A
C2003      C2008   1.408       .  A
C2004      C2005   1.416       .  A
C2004     Br2015   1.926       .  S
C2005      C2006   1.411       .  A
C2005     Br2011   1.925       .  S
C2006      C2007   1.418       .  A
C2007      C2008   1.405       .  A
C2007     Br2016   1.933       .  S
C2008     Br2012   1.936       .  S
C2017      C2018   1.418       .  A
C2017      C2022   1.408       .  A
C2018      C2019   1.402       .  A
C2018     Br2030   1.937       .  S
C2019      C2020   1.405       .  A
C2019     Br2034   1.933       .  S
C2020      C2021   1.408       .  A
C2020      C2023   1.479       .  S
C2021      C2022   1.407       .  A
C2021     Br2029   1.928       .  S
C2022     Br2033   1.924       .  S
C2023      C2024   1.403       .  A
C2023      C2028   1.406       .  A
C2024      C2025   1.410       .  A
C2024     Br2035   1.931       .  S
C2025      C2026   1.425       .  A
C2025     Br2031   1.933       .  S
C2026      C2027   1.418       .  A
C2027      C2028   1.403       .  A
C2027     Br2036   1.933       .  S
C2028     Br2032   1.936       .  S
C2037      C2038   1.421       .  A
C2037      C2042   1.415       .  A
C2038      C2039   1.402       .  A
C2038     Br2050   1.932       .  S
C2039      C2040   1.403       .  A
C2039     Br2054   1.933       .  S
C2040      C2041   1.406       .  A
C2040      C2043   1.482       .  S
C2041      C2042   1.409       .  A
C2041     Br2049   1.929       .  S
C2042     Br2053   1.923   1_554  S
C2043      C2044   1.402       .  A
C2043      C2048   1.407       .  A
C2044      C2045   1.411       .  A
C2044     Br2055   1.930       .  S
C2045      C2046   1.427       .  A
C2045     Br2051   1.935       .  S
C2046      C2047   1.423       .  A
C2047      C2048   1.401       .  A
C2047     Br2056   1.941       .  S
C2048     Br2052   1.937   1_554  S
C2057      C2058   1.424       .  A
C2057      C2062   1.413       .  A
C2058      C2059   1.417       .  A
C2058     Br2070   1.919   1_554  S
C2059      C2060   1.409       .  A
C2059     Br2074   1.931       .  S
C2060      C2061   1.403       .  A
C2060      C2063   1.492       .  S
C2061      C2062   1.400       .  A
C2061     Br2069   1.932       .  S
C2062     Br2073   1.914       .  S
C2063      C2064   1.413       .  A
C2063      C2068   1.408       .  A
C2064      C2065   1.415       .  A
C2064     Br2075   1.928       .  S
C2065      C2066   1.411       .  A
C2065     Br2071   1.922       .  S
C2066      C2067   1.413       .  A
C2067      C2068   1.402       .  A
C2067     Br2076   1.927       .  S
C2068     Br2072   1.933       .  S
C2077      C2078   1.424       .  A
C2077      C2082   1.418       .  A
C2078      C2079   1.407       .  A
C2078     Br2090   1.931       .  S
C2079      C2080   1.403       .  A
C2079     Br2094   1.930       .  S
C2080      C2081   1.406       .  A
C2080      C2083   1.491       .  S
C2081      C2082   1.413       .  A
C2081     Br2089   1.931       .  S
C2082     Br2093   1.915       .  S
C2083      C2084   1.406       .  A
C2083      C2088   1.404       .  A
C2084      C2085   1.408       .  A
C2084     Br2095   1.935       .  S
C2085      C2086   1.425       .  A
C2085     Br2091   1.934       .  S
C2086      C2087   1.433       .  A
C2087      C2088   1.414       .  A
C2087     Br2096   1.938       .  S
C2088     Br2092   1.933       .  S
C2097      C2098   1.421   1_455  A
C2097      C2102   1.418       .  A
C2098      C2099   1.412       .  A
C2098     Br2110   1.931       .  S
C2099      C2100   1.406   1_655  A
C2099     Br2114   1.930       .  S
C2100      C2101   1.408       .  A
C2100      C2103   1.486       .  S
C2101      C2102   1.406       .  A
C2101     Br2109   1.935       .  S
C2102     Br2113   1.933       .  S
C2103      C2104   1.411       .  A
C2103      C2108   1.406       .  A
C2104      C2105   1.412       .  A
C2104     Br2115   1.926       .  S
C2105      C2106   1.408       .  A
C2105     Br2111   1.926       .  S
C2106      C2107   1.416       .  A
C2107      C2108   1.402       .  A
C2107     Br2116   1.934       .  S
C2108     Br2112   1.932       .  S
C2117      C2118   1.419       .  A
C2117      C2122   1.410       .  A
C2118      C2119   1.404       .  A
C2118     Br2130   1.939       .  S
C2119      C2120   1.406       .  A
C2119     Br2134   1.933       .  S
C2120      C2121   1.412       .  A
C2120      C2123   1.489       .  S
C2121      C2122   1.413       .  A
C2121     Br2129   1.928   1_655  S
C2122     Br2133   1.925   1_655  S
C2123      C2124   1.409       .  A
C2123      C2128   1.410       .  A
C2124      C2125   1.403       .  A
C2124     Br2135   1.935       .  S
C2125      C2126   1.412       .  A
C2125     Br2131   1.929       .  S
C2126      C2127   1.415       .  A
C2127      C2128   1.414       .  A
C2127     Br2136   1.930       .  S
C2128     Br2132   1.928       .  S
C2137      C2138   1.417       .  A
C2137      C2142   1.422       .  A
C2138      C2139   1.414       .  A
C2138     Br2150   1.919       .  S
C2139      C2140   1.409       .  A
C2139     Br2154   1.931       .  S
C2140      C2141   1.407       .  A
C2140      C2143   1.489       .  S
C2141      C2142   1.403       .  A
C2141     Br2149   1.937       .  S
C2142     Br2153   1.937       .  S
C2143      C2144   1.407       .  A
C2143      C2148   1.414       .  A
C2144      C2145   1.404       .  A
C2144     Br2155   1.930       .  S
C2145      C2146   1.411       .  A
C2145     Br2151   1.922       .  S
C2146      C2147   1.413       .  A
C2147      C2148   1.409       .  A
C2147     Br2156   1.932       .  S
C2148     Br2152   1.933       .  S
C2157      C2158   1.415       .  A
C2157      C2162   1.421       .  A
C2158      C2159   1.405       .  A
C2158     Br2170   1.917   1_655  S
C2159      C2160   1.408       .  A
C2159     Br2174   1.934   1_655  S
C2160      C2161   1.409       .  A
C2160      C2163   1.496   1_655  S
C2161      C2162   1.414       .  A
C2161     Br2169   1.931       .  S
C2162     Br2173   1.920       .  S
C2163      C2164   1.410   1_455  A
C2163      C2168   1.407       .  A
C2164      C2165   1.417   1_655  A
C2164     Br2175   1.934       .  S
C2165      C2166   1.425       .  A
C2165     Br2171   1.924   1_455  S
C2166      C2167   1.416       .  A
C2167      C2168   1.404       .  A
C2167     Br2176   1.920       .  S
C2168     Br2172   1.935       .  S
C2177      C2178   1.424       .  A
C2177      C2182   1.416       .  A
C2178      C2179   1.403       .  A
C2178     Br2190   1.935       .  S
C2179      C2180   1.403       .  A
C2179     Br2194   1.935       .  S
C2180      C2181   1.405       .  A
C2180      C2183   1.481       .  S
C2181      C2182   1.409       .  A
C2181     Br2189   1.931       .  S
C2182     Br2193   1.921       .  S
C2183      C2184   1.403       .  A
C2183      C2188   1.400       .  A
C2184      C2185   1.405       .  A
C2184     Br2195   1.941       .  S
C2185      C2186   1.433       .  A
C2185     Br2191   1.944       .  S
C2186      C2187   1.433       .  A
C2187      C2188   1.411       .  A
C2187     Br2196   1.937       .  S
C2188     Br2192   1.933       .  S
C2197      C2198   1.408       .  A
C2197      C2202   1.416       .  A
C2198      C2199   1.411       .  A
C2198     Br2210   1.922       .  S
C2199      C2200   1.409       .  A
C2199     Br2214   1.925       .  S
C2200      C2201   1.406       .  A
C2200      C2203   1.483       .  S
C2201      C2202   1.402       .  A
C2201     Br2209   1.933       .  S
C2202     Br2213   1.935       .  S
C2203      C2204   1.406       .  A
C2203      C2208   1.409       .  A
C2204      C2205   1.410       .  A
C2204     Br2215   1.929       .  S
C2205      C2206   1.416       .  A
C2205     Br2211   1.930       .  S
C2206      C2207   1.413       .  A
C2207      C2208   1.405       .  A
C2207     Br2216   1.931       .  S
C2208     Br2212   1.933       .  S
C2217      C2218   1.408       .  A
C2217      C2222   1.416       .  A
C2218      C2219   1.413       .  A
C2218     Br2230   1.925       .  S
C2219      C2220   1.411       .  A
C2219     Br2234   1.924       .  S
C2220      C2221   1.407       .  A
C2220      C2223   1.487       .  S
C2221      C2222   1.402       .  A
C2221     Br2229   1.932       .  S
C2222     Br2233   1.934       .  S
C2223      C2224   1.408       .  A
C2223      C2228   1.408       .  A
C2224      C2225   1.413       .  A
C2224     Br2235   1.928       .  S
C2225      C2226   1.415       .  A
C2225     Br2231   1.925       .  S
C2226      C2227   1.414       .  A
C2227      C2228   1.406       .  A
C2227     Br2236   1.927       .  S
C2228     Br2232   1.934       .  S
C2237      C2238   1.431       .  A
C2237      C2242   1.439       .  A
C2238      C2239   1.412       .  A
C2238     Br2250   1.935       .  S
C2239      C2240   1.401       .  A
C2239     Br2254   1.932       .  S
C2240      C2241   1.401       .  A
C2240      C2243   1.482   1_545  S
C2241      C2242   1.405       .  A
C2241     Br2249   1.942       .  S
C2242     Br2253   1.950       .  S
C2243      C2244   1.404       .  A
C2243      C2248   1.402       .  A
C2244      C2245   1.410       .  A
C2244     Br2255   1.933   1_565  S
C2245      C2246   1.419       .  A
C2245     Br2251   1.919       .  S
C2246      C2247   1.425       .  A
C2247      C2248   1.405       .  A
C2247     Br2256   1.934       .  S
C2248     Br2252   1.936       .  S
C2257      C2258   1.422       .  A
C2257      C2262   1.412       .  A
C2258      C2259   1.418       .  A
C2258     Br2270   1.923       .  S
C2259      C2260   1.411       .  A
C2259     Br2274   1.930       .  S
C2260      C2261   1.406       .  A
C2260      C2263   1.493       .  S
C2261      C2262   1.400       .  A
C2261     Br2269   1.935       .  S
C2262     Br2273   1.917       .  S
C2263      C2264   1.405       .  A
C2263      C2268   1.411       .  A
C2264      C2265   1.399       .  A
C2264     Br2275   1.934       .  S
C2265      C2266   1.414       .  A
C2265     Br2271   1.919       .  S
C2266      C2267   1.424       .  A
C2267      C2268   1.418       .  A
C2267     Br2276   1.926       .  S
C2268     Br2272   1.930       .  S
C2277      C2278   1.421       .  A
C2277      C2282   1.419       .  A
C2278      C2279   1.413       .  A
C2278     Br2290   1.927       .  S
C2279      C2280   1.407   1_655  A
C2279     Br2294   1.931       .  S
C2280      C2281   1.403       .  A
C2280      C2283   1.492       .  S
C2281      C2282   1.408   1_455  A
C2281     Br2289   1.936       .  S
C2282     Br2293   1.907       .  S
C2283      C2284   1.408       .  A
C2283      C2288   1.405       .  A
C2284      C2285   1.405       .  A
C2284     Br2295   1.938       .  S
C2285      C2286   1.427       .  A
C2285     Br2291   1.940       .  S
C2286      C2287   1.429       .  A
C2287      C2288   1.415       .  A
C2287     Br2296   1.933       .  S
C2288     Br2292   1.931       .  S
C2297      C2298   1.421       .  A
C2297      C2302   1.414       .  A
C2298      C2299   1.407       .  A
C2298     Br2310   1.924       .  S
C2299      C2300   1.403       .  A
C2299     Br2314   1.932       .  S
C2300      C2301   1.407       .  A
C2300      C2303   1.491       .  S
C2301      C2302   1.414       .  A
C2301     Br2309   1.928       .  S
C2302     Br2313   1.919       .  S
C2303      C2304   1.412       .  A
C2303      C2308   1.407       .  A
C2304      C2305   1.408       .  A
C2304     Br2315   1.932       .  S
C2305      C2306   1.412       .  A
C2305     Br2311   1.934       .  S
C2306      C2307   1.417   1_545  A
C2307      C2308   1.411   1_565  A
C2307     Br2316   1.930       .  S
C2308     Br2312   1.929   1_545  S
C2317      C2318   1.426       .  A
C2317      C2322   1.418       .  A
C2318      C2319   1.406       .  A
C2318     Br2330   1.938       .  S
C2319      C2320   1.404       .  A
C2319     Br2334   1.937       .  S
C2320      C2321   1.407       .  A
C2320      C2323   1.489       .  S
C2321      C2322   1.414       .  A
C2321     Br2329   1.928       .  S
C2322     Br2333   1.923   1_565  S
C2323      C2324   1.406       .  A
C2323      C2328   1.405       .  A
C2324      C2325   1.415       .  A
C2324     Br2335   1.929       .  S
C2325      C2326   1.428       .  A
C2325     Br2331   1.934       .  S
C2326      C2327   1.422       .  A
C2327      C2328   1.406       .  A
C2327     Br2336   1.928       .  S
C2328     Br2332   1.937       .  S
C2337      C2338   1.408       .  A
C2337      C2342   1.419       .  A
C2338      C2339   1.417       .  A
C2338     Br2350   1.924       .  S
C2339      C2340   1.416       .  A
C2339     Br2354   1.926       .  S
C2340      C2341   1.410       .  A
C2340      C2343   1.500       .  S
C2341      C2342   1.407       .  A
C2341     Br2349   1.934       .  S
C2342     Br2353   1.935       .  S
C2343      C2344   1.413       .  A
C2343      C2348   1.415       .  A
C2344      C2345   1.408       .  A
C2344     Br2355   1.932       .  S
C2345      C2346   1.408       .  A
C2345     Br2351   1.923       .  S
C2346      C2347   1.412       .  A
C2347      C2348   1.415       .  A
C2347     Br2356   1.928       .  S
C2348     Br2352   1.929       .  S
C2357      C2358   1.423       .  A
C2357      C2362   1.418       .  A
C2358      C2359   1.419       .  A
C2358     Br2370   1.921       .  S
C2359      C2360   1.416       .  A
C2359     Br2374   1.932       .  S
C2360      C2361   1.410       .  A
C2360      C2363   1.513       .  S
C2361      C2362   1.408       .  A
C2361     Br2369   1.931       .  S
C2362     Br2373   1.919   1_545  S
C2363      C2364   1.414       .  A
C2363      C2368   1.417       .  A
C2364      C2365   1.415       .  A
C2364     Br2375   1.933       .  S
C2365      C2366   1.417       .  A
C2365     Br2371   1.924       .  S
C2366      C2367   1.409       .  A
C2367      C2368   1.413       .  A
C2367     Br2376   1.918       .  S
C2368     Br2372   1.930       .  S
