geometry optimzed in LAMMPS
_audit_creation_date              2020-11-30 
_audit_creation_method            'lammps2cif' 
_symmetry_space_group_name_H-M    'P1' 
_symmetry_Int_Tables_number       1 
_symmetry_cell_setting            triclinic 
loop_ 
_symmetry_equiv_pos_as_xyz 
  x,y,z 
_cell_length_a                    25.56651539 
_cell_length_b                    25.566939305131168 
_cell_length_c                    25.55837003303421 
_cell_angle_alpha                 90.13916788417835 
_cell_angle_beta                  90.155090745765 
_cell_angle_gamma                 90.03606563768186 
loop_ 
_atom_site_label 
_atom_site_type_symbol 
_atom_site_fract_x 
_atom_site_fract_y 
_atom_site_fract_z 
_atom_site_charge 
C1          C  0.14185577  0.73693729  0.95290691     0.78700
N2          N  0.08821087  0.73540720  0.95298328    -0.79600
C3          C  0.06108996  0.73482282  0.99921002     0.81200
N4          N  0.08881998  0.73453464  0.04515326    -0.79500
C5          C  0.14242193  0.73598684  0.04482762     0.81200
N6          N  0.16805817  0.73759207  0.99879770    -0.81300
C7          C  0.35388373  0.61297801  0.04500755     0.78700
N8          N  0.40001460  0.58751679  0.04489534    -0.79600
C9          C  0.42376403  0.57502941  0.99901655     0.81200
N10         N  0.40020792  0.58744058  0.95302692    -0.79500
C11         C  0.35430172  0.61330320  0.95257882     0.81200
N12         N  0.33200550  0.62747915  0.99872240    -0.81300
C13         C  0.92101741  0.21522565  0.04621211     0.78700
N14         N  0.97467516  0.21727627  0.04616336    -0.79600
C15         C  0.00190816  0.21752951  0.99994728     0.81200
N16         N  0.97427916  0.21684971  0.95396953    -0.79500
C17         C  0.92071188  0.21467666  0.95420101     0.81200
N18         N  0.89495809  0.21351097  0.00023325    -0.81300
C19         C  0.70997421  0.34002913  0.95433110     0.78700
N20         N  0.73170851  0.32544216  0.00067595    -0.79600
C21         C  0.70903549  0.33921710  0.04680530     0.81200
N22         N  0.66263481  0.36443378  0.04623694    -0.79500
C23         C  0.63946300  0.37707106  0.99999641     0.81200
N24         N  0.66386064  0.36532214  0.95438697    -0.81300
C25         C  0.79200567  0.92930330  0.11001202     0.78700
N26         N  0.79005783  0.92968502  0.05635886    -0.79600
C27         C  0.78946995  0.97605322  0.02945813     0.81200
N28         N  0.78960006  0.02183149  0.05743140    -0.79500
C29         C  0.79147367  0.02124967  0.11105278     0.81200
N30         N  0.79306459  0.97506893  0.13646034    -0.81300
C31         C  0.66928265  0.02140825  0.32349627     0.78700
N32         N  0.64344397  0.02052690  0.36946570    -0.79600
C33         C  0.63078068  0.97415099  0.39222675     0.81200
N34         N  0.64340473  0.92871339  0.36790641    -0.79500
C35         C  0.66948410  0.92903121  0.32225845     0.81200
N36         N  0.68384235  0.97548704  0.30089267    -0.81300
C37         C  0.27209264  0.02246186  0.88877878     0.78700
N38         N  0.27027620  0.97649838  0.86280139    -0.79600
C39         C  0.27096575  0.93056551  0.88867663     0.81200
N40         N  0.27275617  0.93043381  0.94228581    -0.79500
C41         C  0.27359482  0.97646426  0.96981864     0.81200
N42         N  0.27385332  0.02257153  0.94246172    -0.81300
C43         C  0.39314801  0.93025882  0.67515395     0.78700
N44         N  0.41899564  0.93050387  0.62930591    -0.79600
C45         C  0.43133671  0.97634019  0.60565230     0.81200
N46         N  0.41860752  0.02234684  0.62921219    -0.79500
C47         C  0.39303670  0.02262315  0.67528399     0.81200
N48         N  0.37878171  0.97643676  0.69728462    -0.81300
C49         C  0.92115797  0.73769315  0.04582024     0.78700
N50         N  0.89500094  0.73917763  0.99996298    -0.79600
C51         C  0.92062477  0.73771536  0.95394584     0.81200
N52         N  0.97420644  0.73561629  0.95360675    -0.79500
C53         C  0.00192202  0.73516970  0.99955820     0.81200
N54         N  0.97478159  0.73553011  0.04577309    -0.81300
C55         C  0.71138770  0.60976153  0.04557986     0.78700
N56         N  0.67172309  0.57514416  0.04531033    -0.79600
C57         C  0.65020104  0.55888637  0.99954611     0.81200
N58         N  0.67031469  0.57600534  0.95337573    -0.79500
C59         C  0.71043556  0.61047918  0.95318410     0.81200
N60         N  0.72985258  0.62832951  0.99943038    -0.81300
C61         C  0.14224242  0.21710227  0.95375906     0.78700
N62         N  0.08853313  0.21852485  0.95357481    -0.79600
C63         C  0.06110974  0.21809183  0.99967710     0.81200
N64         N  0.08857389  0.21740279  0.04571599    -0.79500
C65         C  0.14213214  0.21587854  0.04562784     0.81200
N66         N  0.16811706  0.21539995  0.99975757    -0.81300
C67         C  0.35285783  0.34123209  0.95310027     0.78700
N68         N  0.33322236  0.32289556  0.99892693    -0.79600
C69         C  0.35166581  0.34087566  0.04549358     0.81200
N70         N  0.39146166  0.37532735  0.04598845    -0.79500
C71         C  0.41309945  0.39204972  0.00066450     0.81200
N72         N  0.39309166  0.37545136  0.95412041    -0.81300
C73         C  0.79045888  0.93119331  0.88887414     0.78700
N74         N  0.78886215  0.93080990  0.94246018    -0.79600
C75         C  0.78931838  0.97667258  0.97025501     0.81200
N76         N  0.79022326  0.02293924  0.94316888    -0.79500
C77         C  0.79190246  0.02305842  0.88948726     0.81200
N78         N  0.79237533  0.97721487  0.86326170    -0.81300
C79         C  0.66601486  0.02314072  0.67886536     0.78700
N80         N  0.63182447  0.02354426  0.63878245    -0.79600
C81         C  0.61489724  0.97817017  0.61715650     0.81200
N82         N  0.63110136  0.93163612  0.63744166    -0.79500
C83         C  0.66516778  0.93072558  0.67798543     0.81200
N84         N  0.68362216  0.97666540  0.69757797    -0.81300
C85         C  0.27054747  0.02219218  0.11014773     0.78700
N86         N  0.27260678  0.02233209  0.05656414    -0.79600
C87         C  0.27336777  0.97630659  0.02903073     0.81200
N88         N  0.27328441  0.93019334  0.05637514    -0.79500
C89         C  0.27124508  0.93027726  0.11003566     0.81200
N90         N  0.26948759  0.97624291  0.13600776    -0.81300
C91         C  0.39669003  0.93014821  0.31931660     0.78700
N92         N  0.43067401  0.93071615  0.35976326    -0.79600
C93         C  0.44743509  0.97693178  0.38027941     0.81200
N94         N  0.43114431  0.02255848  0.35888826    -0.79500
C95         C  0.39684185  0.02253406  0.31884038     0.81200
N96         N  0.37863926  0.97621715  0.29993981    -0.81300
C97         C  0.98499277  0.08709144  0.75921715     0.78700
N98         N  0.03084120  0.11322790  0.76012819    -0.79600
C99         C  0.07684482  0.08752009  0.75836399     0.81200
N100        N  0.07714704  0.03388034  0.75638411    -0.79500
C101        C  0.03118339  0.00624171  0.75637571     0.81200
N102        N  0.98503214  0.03348624  0.75719553    -0.81300
C103        C  0.98460134  0.29963930  0.63769787     0.78700
N104        N  0.98456180  0.34625622  0.61334395    -0.79600
C105        C  0.03014517  0.37062994  0.60159126     0.81200
N106        N  0.07630681  0.34695694  0.61349651    -0.79500
C107        C  0.07691707  0.30004740  0.63749701     0.81200
N108        N  0.03090721  0.27734115  0.65127957    -0.81300
C109        C  0.07709028  0.86591988  0.75981292     0.78700
N110        N  0.07731011  0.91954713  0.75748715    -0.79600
C111        C  0.03127063  0.94704028  0.75658108     0.81200
N112        N  0.98516706  0.91967120  0.75676558    -0.79500
C113        C  0.98516294  0.86610395  0.75905245     0.81200
N114        N  0.03105888  0.84011003  0.76095984    -0.81300
C115        C  0.07686896  0.65636914  0.63347924     0.78700
N116        N  0.07536643  0.61743938  0.59774027    -0.79600
C117        C  0.02863196  0.59845232  0.58044347     0.81200
N118        N  0.98356900  0.61977140  0.59821567    -0.79500
C119        C  0.98452961  0.65852794  0.63396886     0.81200
N120        N  0.03125921  0.67589740  0.65251622    -0.81300
C121        C  0.07755857  0.86475713  0.23905374     0.78700
N122        N  0.03164492  0.83878573  0.23750664    -0.79600
C123        C  0.98570546  0.86464680  0.23870069     0.81200
N124        N  0.98555331  0.91828086  0.24075261    -0.79500
C125        C  0.03161302  0.94577741  0.24130953     0.81200
N126        N  0.07767568  0.91837252  0.24104362    -0.81300
C127        C  0.07855893  0.65361496  0.36240199     0.78700
N128        N  0.07901651  0.60733457  0.38752168    -0.79600
C129        C  0.03360943  0.58250973  0.39918783     0.81200
N130        N  0.98723705  0.60540966  0.38658386    -0.79500
C131        C  0.98616683  0.65194701  0.36193626     0.79600
N132        N  0.03201283  0.67506826  0.34817363    -0.81300
C133        C  0.98583764  0.08616187  0.24043311     0.78700
N134        N  0.98563021  0.03251286  0.24192525    -0.79600
C135        C  0.03166296  0.00500691  0.24159295     0.81200
N136        N  0.07778353  0.03240293  0.24091782    -0.79500
C137        C  0.07772139  0.08602966  0.23935922     0.81200
N138        N  0.03181004  0.11198996  0.23876044    -0.81300
C139        C  0.07780143  0.29560461  0.36552980     0.78700
N140        N  0.07862766  0.33392755  0.40166029    -0.79600
C141        C  0.03355376  0.35440205  0.42025191     0.81200
N142        N  0.98680054  0.33502671  0.40322116    -0.79500
C143        C  0.98546347  0.29642941  0.36697084     0.81200
N144        N  0.03115334  0.27772826  0.34734474    -0.81300
C145        C  0.29277568  0.52237666  0.38858857     0.78700
N146        N  0.29332249  0.47640236  0.36263665    -0.79600
C147        C  0.29113674  0.43052898  0.38848740     0.81200
N148        N  0.28920848  0.43044395  0.44208559    -0.79500
C149        C  0.28953238  0.47650247  0.46959503     0.81200
N150        N  0.29070578  0.52257099  0.44223429    -0.81300
C151        C  0.11040685  0.47650100  0.12067331     0.78700
N152        N  0.12902618  0.52206761  0.14048452    -0.79600
C153        C  0.16562687  0.52200578  0.17847615     0.81200
N154        N  0.18412953  0.47569642  0.19665789    -0.79500
C155        C  0.16447264  0.42963060  0.17866903     0.81200
N156        N  0.12783219  0.43018532  0.14043331    -0.81300
O157        O  0.22338650  0.74523317  0.09048662    -0.88000
O158        O  0.17010813  0.67372163  0.36586078    -0.88200
O159        O  0.16410021  0.61405254  0.19644367    -0.89800
O160        O  0.12319911  0.78399842  0.22962796    -0.88600
O161        O  0.16789537  0.85753697  0.25563119    -0.88200
O162        O  0.23974321  0.56607866  0.20483281    -0.89600
O163        O  0.12195958  0.68439899  0.29049044    -0.88000
O164        O  0.15006145  0.71908640  0.13501216    -0.87600
Zr165      Zr  0.18146059  0.70626809  0.22277399     2.84300
O166        O  0.20866239  0.75292488  0.29685102    -1.09600
O167        O  0.25463833  0.67821513  0.17561805    -1.10300
C168        C  0.17383390  0.73358647  0.09331766     1.05100
C169        C  0.12683137  0.67274049  0.33891559     1.05000
C170        C  0.19091290  0.57082018  0.19446428     1.08000
C171        C  0.12611419  0.83359306  0.24120690     1.05800
H172        H  0.21416838  0.62255555  0.28766855     0.31400
O173        O  0.23390910  0.65256285  0.27603019    -1.30500
H174        H  0.20630987  0.80124531  0.17378862     0.31000
O175        O  0.22816004  0.77950127  0.19557861    -1.32200
O176        O  0.34046499  0.70591529  0.40727247    -0.88000
O177        O  0.39356701  0.78009781  0.13282863    -0.89500
O178        O  0.30218703  0.56782503  0.30763700    -0.88100
O179        O  0.22786400  0.84225951  0.36118372    -0.88100
O180        O  0.26225086  0.88452625  0.19096184    -0.87800
O181        O  0.33374187  0.60903031  0.13657368    -0.87600
O182        O  0.43986937  0.66719664  0.26915237    -0.88000
O183        O  0.39916102  0.83798427  0.30094883    -0.87500
O184        O  0.39522858  0.59381253  0.24264707    -0.88500
O185        O  0.32334986  0.88563710  0.29230766    -0.87700
O186        O  0.27628903  0.61263063  0.38104349    -0.88100
O187        O  0.32385420  0.68479432  0.08915578    -0.87800
O188        O  0.28787205  0.83986964  0.11734816    -0.87500
O189        O  0.23851389  0.76685012  0.40897130    -0.87900
O190        O  0.41371550  0.73217814  0.36278868    -0.88200
O191        O  0.44148803  0.76956894  0.20837335    -0.89500
Zr192      Zr  0.26241127  0.69985730  0.34922721     2.83100
Zr193      Zr  0.30134072  0.75227800  0.14882302     2.83500
Zr194      Zr  0.30759845  0.62532729  0.22908724     2.84100
Zr195      Zr  0.25558751  0.82630484  0.26897978     2.83400
Zr196      Zr  0.38205047  0.74540358  0.27522912     2.84200
O197        O  0.32947266  0.79919241  0.22235538    -1.10100
O198        O  0.33541027  0.67210871  0.30246149    -1.09600
C199        C  0.38996903  0.71761164  0.40445848     1.05100
C200        C  0.43675400  0.78145363  0.16000345     1.07700
C201        C  0.29086914  0.57087694  0.35727994     1.05300
C202        C  0.22657358  0.81520091  0.40429627     1.05600
C203        C  0.27357116  0.88166259  0.14129155     1.05200
C204        C  0.33513412  0.63627135  0.09359420     1.04700
C205        C  0.43697378  0.61762573  0.25743688     1.05200
C206        C  0.37214254  0.88112669  0.30274362     1.04700
H207        H  0.38481476  0.68712060  0.18140892     0.31400
O208        O  0.35479229  0.69862409  0.20113407    -1.31200
H209        H  0.32076819  0.79356008  0.35252912     0.31400
O210        O  0.30910136  0.77383578  0.32243853    -1.32600
C211        C  0.42041422  0.23785301  0.45354295     0.78700
N212        N  0.47399561  0.23585970  0.45360073    -0.79600
C213        C  0.50137851  0.23573287  0.49975632     0.81200
N214        N  0.47387410  0.23636496  0.54575593    -0.79500
C215        C  0.42022523  0.23848395  0.54540944     0.81200
N216        N  0.39442132  0.23960347  0.49936138    -0.81300
C217        C  0.21235477  0.11047551  0.45291926     0.78700
N218        N  0.17291117  0.07548641  0.45219799    -0.79600
C219        C  0.15095433  0.05895824  0.49748589     0.81200
N220        N  0.17025060  0.07626771  0.54406127    -0.79500
C221        C  0.20998748  0.11099902  0.54526693     0.81200
N222        N  0.22998207  0.12910932  0.49954266    -0.81300
O223        O  0.26233830  0.06816426  0.80789993    -0.88000
O224        O  0.33464097  0.34390089  0.86081161    -0.88200
O225        O  0.39366792  0.17285927  0.86500053    -0.89800
O226        O  0.22330923  0.20799189  0.90796130    -0.88600
O227        O  0.14958360  0.23360814  0.86344972    -0.88200
O228        O  0.44104472  0.18283472  0.78924363    -0.89600
O229        O  0.32545318  0.26825071  0.90845399    -0.88000
O230        O  0.28864052  0.11289809  0.88137600    -0.87600
Zr231      Zr  0.30137022  0.20042140  0.84953936     2.84300
O232        O  0.25501116  0.27445342  0.82246556    -1.09600
O233        O  0.32899734  0.15326056  0.77601501    -1.10300
C234        C  0.27418292  0.07106018  0.85750959     1.05100
C235        C  0.33633680  0.31690295  0.90393127     1.05000
C236        C  0.43660557  0.17135551  0.83770730     1.08000
C237        C  0.17360124  0.21941871  0.90519949     1.05800
H238        H  0.38506955  0.26508214  0.81621827     0.31400
O239        O  0.35483754  0.25349044  0.79670168    -1.30500
H240        H  0.20594051  0.15128277  0.82503368     0.31000
O241        O  0.22767161  0.17301735  0.80320787    -1.32200
O242        O  0.30109668  0.38465026  0.69045367    -0.88000
O243        O  0.22769146  0.10883491  0.63758920    -0.89500
O244        O  0.43949202  0.28479590  0.72771832    -0.88100
O245        O  0.16603780  0.33874107  0.80444296    -0.88100
O246        O  0.12264288  0.16848410  0.76833036    -0.87800
O247        O  0.39712019  0.11429888  0.69546765    -0.87600
O248        O  0.33919674  0.24756440  0.59099022    -0.88000
O249        O  0.16831319  0.27923270  0.63294606    -0.87500
O250        O  0.41257931  0.22067481  0.63528414    -0.88500
O251        O  0.12133496  0.26991934  0.70902742    -0.87700
O252        O  0.39522944  0.35823466  0.75414225    -0.88100
O253        O  0.32171320  0.06653632  0.70663988    -0.87800
O254        O  0.16704999  0.09494074  0.74224504    -0.87500
O255        O  0.24163294  0.38629704  0.79346955    -0.87900
O256        O  0.27379621  0.34012563  0.61723223    -0.88200
O257        O  0.23623817  0.18455645  0.58989782    -0.89500
Zr258      Zr  0.30790918  0.32668362  0.76848289     2.83100
Zr259      Zr  0.25464706  0.12621711  0.72979264     2.83500
Zr260      Zr  0.38115569  0.20669451  0.72249196     2.84100
Zr261      Zr  0.18114203  0.24644340  0.77599409     2.83400
Zr262      Zr  0.26075860  0.25251244  0.64880212     2.84200
O263        O  0.20759141  0.19960440  0.70186427    -1.10100
O264        O  0.33455120  0.27990899  0.69501377    -1.09600
C265        C  0.28888067  0.38182404  0.64097057     1.05100
C266        C  0.22572708  0.13578901  0.59445748     1.07700
C267        C  0.43678269  0.33443126  0.73923147     1.05300
C268        C  0.19341639  0.38174274  0.80578714     1.05600
C269        C  0.12536512  0.11888607  0.75651031     1.05200
C270        C  0.36996372  0.07118704  0.69441206     1.04700
C271        C  0.38881546  0.23596719  0.59380710     1.05200
C272        C  0.12555519  0.28109232  0.66047300     1.04700
H273        H  0.31892133  0.15882361  0.64562097     0.31400
O274        O  0.30754177  0.17854780  0.67574083    -1.31200
H275        H  0.21363810  0.32990981  0.71098116     0.31400
O276        O  0.23333556  0.29978546  0.72229572    -1.32600
C277        C  0.42111892  0.71593492  0.45312624     0.78700
N278        N  0.39516020  0.71507527  0.49901947    -0.79600
C279        C  0.42102420  0.71683176  0.54506497     0.81200
N280        N  0.47467340  0.71866117  0.54528000    -0.79500
C281        C  0.50212378  0.71862601  0.49922141     0.81200
N282        N  0.47470877  0.71789331  0.45310331    -0.81300
C283        C  0.20993382  0.84024027  0.54538813     0.78700
N284        N  0.23131515  0.82541678  0.49900181    -0.79600
C285        C  0.20819582  0.83877434  0.45294663     0.81200
N286        N  0.16176519  0.86373360  0.45362471    -0.79500
C287        C  0.13895829  0.87682771  0.49983769     0.81200
N288        N  0.16373930  0.86554074  0.54546124    -0.81300
C289        C  0.29085560  0.52238771  0.60991497     0.78700
N290        N  0.28933665  0.52248560  0.55629475    -0.79600
C291        C  0.28908989  0.47643232  0.52878202     0.81200
N292        N  0.28917737  0.43034780  0.55613624    -0.79500
C293        C  0.29079610  0.43046926  0.60979937     0.81200
N294        N  0.29199204  0.47645647  0.63580474    -0.81300
C295        C  0.17050787  0.43062731  0.82423307     0.78700
N296        N  0.18338575  0.47614922  0.79999896    -0.79600
C297        C  0.16946713  0.52292068  0.82112659     0.81200
N298        N  0.14585841  0.52396294  0.86806093    -0.79500
C299        C  0.13502515  0.47905902  0.89396209     0.81200
N300        N  0.14716605  0.43230302  0.87149953    -0.81300
O301        O  0.22241054  0.74684358  0.90715022    -0.88000
O302        O  0.16938295  0.67399063  0.63111560    -0.88200
O303        O  0.12278186  0.78495389  0.76936211    -0.89800
O304        O  0.16518587  0.61412066  0.80041956    -0.88600
O305        O  0.24076871  0.56652260  0.78975699    -0.88200
O306        O  0.16737851  0.85827922  0.74328976    -0.89600
O307        O  0.12188232  0.68207842  0.70703746    -0.88000
O308        O  0.14917946  0.71992676  0.86244670    -0.87600
Zr309      Zr  0.18086453  0.70674801  0.77478242     2.84300
O310        O  0.23385118  0.65360268  0.72168867    -1.09600
O311        O  0.22731789  0.78008879  0.80286199    -1.10300
C312        C  0.17290794  0.73494386  0.90420992     1.05100
C313        C  0.12629403  0.67182567  0.65817461     1.05000
C314        C  0.12566804  0.83454927  0.75789889     1.08000
C315        C  0.19237906  0.57107437  0.80133927     1.05800
H316        H  0.17788598  0.76524108  0.68121507     0.31400
O317        O  0.20789609  0.75361801  0.70098859    -1.30500
H318        H  0.24255462  0.65883690  0.85199385     0.31000
O319        O  0.25410924  0.67866582  0.82207546    -1.32200
O320        O  0.34002878  0.70766175  0.59056587    -0.88000
O321        O  0.39307090  0.77842413  0.86723924    -0.89500
O322        O  0.22927089  0.84366656  0.63727455    -0.88100
O323        O  0.30064883  0.56828238  0.69063949    -0.88100
O324        O  0.33491992  0.61014385  0.86069004    -0.87800
O325        O  0.26090245  0.88479788  0.80792506    -0.87600
O326        O  0.39725682  0.83869963  0.69521736    -0.88000
O327        O  0.44011574  0.66853756  0.73036722    -0.87500
O328        O  0.32169373  0.88634189  0.70593020    -0.88500
O329        O  0.39534633  0.59502913  0.75568282    -0.87700
O330        O  0.24049615  0.76844711  0.58906333    -0.88100
O331        O  0.28735837  0.84027606  0.88120407    -0.87800
O332        O  0.32414884  0.68540274  0.90897032    -0.87500
O333        O  0.27468688  0.61277692  0.61714724    -0.87900
O334        O  0.41352773  0.73339760  0.63558948    -0.88200
O335        O  0.44090848  0.77009859  0.79156015    -0.89500
Zr336      Zr  0.26187403  0.70054789  0.64849144     2.83100
Zr337      Zr  0.30066647  0.75271445  0.84957991     2.83500
Zr338      Zr  0.25490768  0.82675072  0.72982308     2.84100
Zr339      Zr  0.30784546  0.62667477  0.76842527     2.83400
Zr340      Zr  0.38187768  0.74663120  0.72327331     2.84200
O341        O  0.35469833  0.69998900  0.79705202    -1.10100
O342        O  0.30829683  0.77446421  0.67632578    -1.09600
C343        C  0.38967776  0.71911736  0.59363058     1.05100
C344        C  0.43624968  0.78040221  0.84039960     1.07700
C345        C  0.22873813  0.81683006  0.59390363     1.05300
C346        C  0.28895384  0.57104597  0.64107551     1.05600
C347        C  0.33600953  0.63703544  0.90402411     1.05200
C348        C  0.27267311  0.88195021  0.85745914     1.04700
C349        C  0.36998593  0.88169949  0.69386832     1.05200
C350        C  0.43716915  0.61887858  0.74165038     1.04700
H351        H  0.34863901  0.83001956  0.78837461     0.31400
O352        O  0.32902109  0.79992523  0.77663907    -1.31200
H353        H  0.35703621  0.65155738  0.67359082     0.31400
O354        O  0.33523155  0.67335362  0.69535233    -1.32600
C355        C  0.77114056  0.42993259  0.38959803     0.78700
N356        N  0.77351473  0.43006437  0.44320055    -0.79600
C357        C  0.77462756  0.47625499  0.47049174     0.81200
N358        N  0.77469446  0.52218698  0.44291711    -0.79500
C359        C  0.77244553  0.52179710  0.38928400     0.81200
N360        N  0.77025553  0.47573649  0.36352356    -0.81300
C361        C  0.89457917  0.52078335  0.17566059     0.78700
N362        N  0.91822660  0.51929216  0.12844669    -0.79600
C363        C  0.92998175  0.47258116  0.10545956     0.81200
N364        N  0.91858397  0.42751692  0.13077925    -0.79500
C365        C  0.89465966  0.42839429  0.17758569     0.81200
N366        N  0.88114702  0.47508161  0.19922075    -0.81300
C367        C  0.57754459  0.58652462  0.25938237     0.78700
N368        N  0.53158317  0.61242004  0.26053274    -0.79600
C369        C  0.48562871  0.58644436  0.25950388     0.81200
N370        N  0.48555239  0.53280536  0.25800811    -0.79500
C371        C  0.53165242  0.50541664  0.25791954     0.81200
N372        N  0.57769259  0.53289858  0.25803939    -0.81300
C373        C  0.53337743  0.86763143  0.09783645     0.78700
N374        N  0.48684459  0.84542727  0.11089611    -0.79600
C375        C  0.48559870  0.79938863  0.13655425     0.81200
N376        N  0.53136993  0.77612133  0.15055724    -0.79500
C377        C  0.57798791  0.79685036  0.13569301     0.81200
N378        N  0.57862660  0.84259201  0.10970121    -0.81300
O379        O  0.80224695  0.88320701  0.19035077    -0.88000
O380        O  0.72916671  0.60768116  0.13778677    -0.88200
O381        O  0.84041023  0.74639017  0.09145862    -0.89800
O382        O  0.66944480  0.77650302  0.13221502    -0.88600
O383        O  0.62188261  0.76681579  0.20786054    -0.88200
O384        O  0.91382563  0.71984099  0.13587952    -0.89600
O385        O  0.73850300  0.68312693  0.08980154    -0.88000
O386        O  0.77500210  0.83873863  0.11711148    -0.87600
Zr387      Zr  0.76201235  0.75104223  0.14890562     2.84300
O388        O  0.70874371  0.69802779  0.20174986    -1.09600
O389        O  0.83550866  0.77855001  0.19542969    -1.10300
C390        C  0.79013208  0.88043542  0.14087268     1.05100
C391        C  0.72772175  0.63446880  0.09452565     1.05000
C392        C  0.89002316  0.73501764  0.09434622     1.08000
C393        C  0.62637983  0.77784450  0.15927338     1.05800
H394        H  0.82034979  0.65739438  0.14610821     0.31400
O395        O  0.80878102  0.67715479  0.17617036    -1.30500
H396        H  0.71414863  0.82840200  0.21021147     0.31000
O397        O  0.73391701  0.79844089  0.22193125    -1.32200
O398        O  0.76309852  0.56702857  0.30823337    -0.88000
O399        O  0.83316604  0.84353243  0.36107093    -0.89500
O400        O  0.89866401  0.61288648  0.19571951    -0.88100
O401        O  0.62333030  0.66732648  0.26867016    -0.88100
O402        O  0.66593306  0.83744271  0.30237733    -0.87800
O403        O  0.94001792  0.78373142  0.22909132    -0.87600
O404        O  0.89437912  0.67201361  0.36589734    -0.88000
O405        O  0.72386934  0.70712150  0.40830604    -0.87500
O406        O  0.94179727  0.68151048  0.29009819    -0.88500
O407        O  0.65040781  0.73279559  0.36336681    -0.87700
O408        O  0.82314405  0.56522602  0.20655819    -0.88100
O409        O  0.89553962  0.85713780  0.25533377    -0.87800
O410        O  0.74123586  0.88545062  0.29144659    -0.87500
O411        O  0.66792213  0.59372519  0.24307834    -0.87900
O412        O  0.78891431  0.61212376  0.38168734    -0.88200
O413        O  0.82483603  0.76801829  0.40907524    -0.89500
Zr414      Zr  0.75579051  0.62482045  0.23009171     2.83100
Zr415      Zr  0.80814237  0.82554449  0.26851100     2.83500
Zr416      Zr  0.88218566  0.70537709  0.22309827     2.84100
Zr417      Zr  0.68177826  0.74502402  0.27556228     2.83400
Zr418      Zr  0.80199464  0.69963547  0.35001515     2.84200
O419        O  0.75528531  0.77333364  0.32243908    -1.10100
O420        O  0.82986230  0.65216268  0.27668652    -1.09600
C421        C  0.77463703  0.57019494  0.35787155     1.05100
C422        C  0.83486560  0.81686125  0.40438250     1.07700
C423        C  0.87148516  0.56974190  0.19443882     1.05300
C424        C  0.62615948  0.61770552  0.25724376     1.05600
C425        C  0.69293854  0.88064938  0.30340074     1.05200
C426        C  0.93717135  0.83333750  0.24067973     1.04700
C427        C  0.93733942  0.67019809  0.33859725     1.05200
C428        C  0.67421838  0.71868796  0.40530649     1.04700
H429        H  0.88546997  0.76433812  0.31674744     0.31400
O430        O  0.85537646  0.75256641  0.29705102    -1.31200
H431        H  0.70681826  0.65031551  0.32511441     0.31400
O432        O  0.72860003  0.67196841  0.30325913    -1.32600
C433        C  0.64207326  0.71636795  0.54576786     0.78700
N434        N  0.66828661  0.71531181  0.49999526    -0.79600
C435        C  0.64265908  0.71671144  0.45381604     0.81200
N436        N  0.58897312  0.71842738  0.45336534    -0.79500
C437        C  0.56131512  0.71865114  0.49931896     0.81200
N438        N  0.58851956  0.71821972  0.54553722    -0.81300
C439        C  0.85191530  0.84194167  0.54577121     0.78700
N440        N  0.89175523  0.87662511  0.54534792    -0.79600
C441        C  0.91187150  0.89359165  0.49915127     0.81200
N442        N  0.89063851  0.87681173  0.45341448    -0.79500
C443        C  0.85110799  0.84193852  0.45330381     0.81200
N444        N  0.83266679  0.82360730  0.49959485    -0.81300
C445        C  0.57753005  0.58711998  0.73933417     0.78700
N446        N  0.53167207  0.61317508  0.73833618    -0.79600
C447        C  0.48564333  0.58743017  0.73950916     0.81200
N448        N  0.48533126  0.53376458  0.74089935    -0.79500
C449        C  0.53132612  0.50617528  0.74099842     0.81200
N450        N  0.57748721  0.53349933  0.74084358    -0.81300
C451        C  0.53057911  0.85997807  0.91500523     0.78700
N452        N  0.48493090  0.83807596  0.89888312    -0.79600
C453        C  0.48501417  0.79742822  0.86520143     0.81200
N454        N  0.53136499  0.77859276  0.84739917    -0.79500
C455        C  0.57740840  0.79858045  0.86512321     0.81200
N456        N  0.57681918  0.83950545  0.89854379    -0.81300
C457        C  0.77260811  0.43090015  0.61086452     0.78700
N458        N  0.77092212  0.47696701  0.63664403    -0.79600
C459        C  0.77192114  0.52280588  0.61059551     0.81200
N460        N  0.77395920  0.52269742  0.55699074    -0.79500
C461        C  0.77469572  0.47650931  0.52967963     0.81200
N462        N  0.77454222  0.43055661  0.55722812    -0.81300
C463        C  0.95412231  0.47609898  0.87576299     0.78700
N464        N  0.93573178  0.52249510  0.85718549    -0.79600
C465        C  0.89821016  0.52322949  0.81983258     0.81200
N466        N  0.87875327  0.47721525  0.80139514    -0.79500
C467        C  0.89828105  0.43080081  0.81828472     0.81200
N468        N  0.93567949  0.43062564  0.85550619    -0.81300
O469        O  0.83949623  0.74654915  0.90862220    -0.88000
O470        O  0.89274355  0.67669833  0.63222218    -0.88200
O471        O  0.89974996  0.61566807  0.80237412    -0.89800
O472        O  0.93947899  0.78549336  0.76879909    -0.88600
O473        O  0.89455380  0.85881248  0.74303143    -0.88200
O474        O  0.82406227  0.56769863  0.79402404    -0.89600
O475        O  0.94087653  0.68558791  0.70786436    -0.88000
O476        O  0.91289717  0.72119838  0.86366696    -0.87600
Zr477      Zr  0.88148733  0.70766880  0.77595175     2.84300
O478        O  0.85392454  0.75441934  0.70221146    -1.09600
O479        O  0.80857658  0.67915078  0.82328518    -1.10300
C480        C  0.88913534  0.73539969  0.90552300     1.05100
C481        C  0.93604610  0.67524286  0.65903598     1.05000
C482        C  0.87295005  0.57239420  0.80441003     1.08000
C483        C  0.93647909  0.83498804  0.75717395     1.05800
H484        H  0.84902504  0.62404806  0.71069280     0.31400
O485        O  0.82915277  0.65388361  0.72245070    -1.30500
H486        H  0.85600444  0.80261202  0.82512134     0.31000
O487        O  0.83421340  0.78066351  0.80333397    -1.32200
O488        O  0.72246543  0.70684168  0.59171047    -0.88000
O489        O  0.66950008  0.77997781  0.86784195    -0.89500
O490        O  0.76193153  0.56852639  0.69127317    -0.88100
O491        O  0.83367066  0.84449789  0.63801713    -0.88100
O492        O  0.79921606  0.88582413  0.80784804    -0.87800
O493        O  0.72915071  0.60838008  0.86122052    -0.87600
O494        O  0.62302488  0.66790644  0.73008441    -0.88000
O495        O  0.66237807  0.83848764  0.69728216    -0.87500
O496        O  0.66806670  0.59456067  0.75556190    -0.88500
O497        O  0.73830609  0.88611147  0.70553738    -0.87700
O498        O  0.78748236  0.61341465  0.61799109    -0.88100
O499        O  0.73802783  0.68409729  0.90920560    -0.87800
O500        O  0.77430995  0.84084319  0.88137926    -0.87500
O501        O  0.82418390  0.76879308  0.59016799    -0.87900
O502        O  0.64900279  0.73248442  0.63633355    -0.88200
O503        O  0.62163501  0.77080724  0.79203851    -0.89500
Zr504      Zr  0.80037734  0.70122684  0.64959049     2.83100
Zr505      Zr  0.76140229  0.75278706  0.85050182     2.83500
Zr506      Zr  0.75565588  0.62632247  0.76944417     2.84100
Zr507      Zr  0.80654805  0.82755214  0.73010583     2.83400
Zr508      Zr  0.68036665  0.74637658  0.72409781     2.84200
O509        O  0.73308030  0.80002527  0.77724813    -1.10100
O510        O  0.72749568  0.67329656  0.69649135    -1.09600
C511        C  0.67293398  0.71818898  0.59457483     1.05100
C512        C  0.62634050  0.78183705  0.84074289     1.07700
C513        C  0.77338795  0.57153285  0.64173634     1.05300
C514        C  0.83533262  0.81745601  0.59479732     1.05600
C515        C  0.78810437  0.88274603  0.85747248     1.05200
C516        C  0.72723498  0.63530835  0.90442876     1.04700
C517        C  0.62616394  0.61831215  0.74131345     1.05200
C518        C  0.68949106  0.88158148  0.69489996     1.04700
H519        H  0.67813383  0.68762714  0.81743505     0.31400
O520        O  0.70805546  0.69933400  0.79772689    -1.31200
H521        H  0.74143247  0.79437432  0.64668673     0.31400
O522        O  0.75317173  0.77480570  0.67671428    -1.32600
C523        C  0.48553179  0.36530017  0.26032980     0.78700
N524        N  0.53143021  0.33929055  0.26254232    -0.79600
C525        C  0.57749553  0.36507796  0.26180378     0.81200
N526        N  0.57772270  0.41871185  0.25956145    -0.79500
C527        C  0.53168357  0.44622149  0.25844155     0.81200
N528        N  0.48556714  0.41887342  0.25825834    -0.81300
C529        C  0.52956245  0.09453765  0.08433974     0.78700
N530        N  0.57610353  0.11416603  0.10128263    -0.79600
C531        C  0.57732423  0.15487946  0.13491481     0.81200
N532        N  0.53156605  0.17548408  0.15241819    -0.79500
C533        C  0.48496370  0.15749861  0.13403632     0.81200
N534        N  0.48429726  0.11710266  0.10011330    -0.81300
O535        O  0.84014106  0.20614330  0.09196148    -0.88000
O536        O  0.89291670  0.27863657  0.36922429    -0.88200
O537        O  0.89819822  0.33725381  0.19802179    -0.89800
O538        O  0.94031970  0.16725960  0.23193465    -0.88600
O539        O  0.89549452  0.09361648  0.25678693    -0.88200
O540        O  0.82274930  0.38518494  0.20838975    -0.89600
O541        O  0.94058296  0.26942718  0.29358245    -0.88000
O542        O  0.91362342  0.23204100  0.13692108    -0.87600
Zr543      Zr  0.88208790  0.24527045  0.22488681     2.84300
O544        O  0.85478062  0.19889264  0.29871762    -1.09600
O545        O  0.80866757  0.27328127  0.17760570    -1.10300
C546        C  0.88978651  0.21760540  0.09495519     1.05100
C547        C  0.93608934  0.28032781  0.34234675     1.05000
C548        C  0.87117085  0.38035666  0.19683889     1.08000
C549        C  0.93734033  0.11754061  0.24288800     1.05800
H550        H  0.84878205  0.32884147  0.28974526     0.31400
O551        O  0.82917287  0.29878341  0.27792599    -1.30500
H552        H  0.85711918  0.15027016  0.17532155     0.31000
O553        O  0.83531262  0.17207264  0.19708268    -1.32200
O554        O  0.72226175  0.24585909  0.40823337    -0.88000
O555        O  0.66970610  0.17253664  0.13273263    -0.89500
O556        O  0.76100734  0.38395611  0.30896775    -0.88100
O557        O  0.83688972  0.10999346  0.36232299    -0.88100
O558        O  0.80075128  0.06679873  0.19231168    -0.87800
O559        O  0.72876281  0.34260228  0.13867544    -0.87600
O560        O  0.62320494  0.28400410  0.27105621    -0.88000
O561        O  0.66497691  0.11309481  0.30312815    -0.87500
O562        O  0.66781489  0.35740507  0.24519337    -0.88500
O563        O  0.74101404  0.06589883  0.29400572    -0.87700
O564        O  0.78717290  0.33955958  0.38240713    -0.88100
O565        O  0.73940592  0.26716584  0.09064507    -0.87800
O566        O  0.77521248  0.11153006  0.11877772    -0.87500
O567        O  0.82565872  0.18538107  0.41031038    -0.87900
O568        O  0.64900670  0.21906712  0.36350652    -0.88200
O569        O  0.62196010  0.18133597  0.20841680    -0.89500
Zr570      Zr  0.80078207  0.25199752  0.35096667     2.83100
Zr571      Zr  0.76207562  0.19930867  0.15000865     2.83500
Zr572      Zr  0.75519318  0.32570742  0.23104054     2.84100
Zr573      Zr  0.80806694  0.12538540  0.27024035     2.83400
Zr574      Zr  0.68107780  0.20551356  0.27625070     2.84200
O575        O  0.73403752  0.15214965  0.22322557    -1.10100
O576        O  0.72747086  0.27905555  0.30405238    -1.09600
C577        C  0.67271967  0.23409596  0.40523276     1.05100
C578        C  0.62652688  0.17074395  0.15965253     1.07700
C579        C  0.77265531  0.38120683  0.35853366     1.05300
C580        C  0.83817946  0.13719512  0.40548617     1.05600
C581        C  0.78933648  0.06971022  0.14264027     1.05200
C582        C  0.72764917  0.31560746  0.09541306     1.04700
C583        C  0.62610240  0.33366351  0.25980284     1.05200
C584        C  0.69244528  0.07022732  0.30510096     1.04700
H585        H  0.67818086  0.26399213  0.18271549     0.31400
O586        O  0.70820913  0.25240979  0.20247885    -1.31200
H587        H  0.74301556  0.15804584  0.35375345     0.31400
O588        O  0.75440212  0.17772240  0.32368019    -1.32600
C589        C  0.48539495  0.36576835  0.73716804     0.78700
N590        N  0.53140167  0.33994992  0.73633963    -0.79600
C591        C  0.57732293  0.36595373  0.73852698     0.81200
N592        N  0.57735452  0.41955982  0.74065096    -0.79500
C593        C  0.53126136  0.44693322  0.74050935     0.81200
N594        N  0.48521603  0.41940555  0.73945166    -0.81300
C595        C  0.53271086  0.08547199  0.90087765     0.78700
N596        N  0.57811105  0.11018401  0.88907521    -0.79600
C597        C  0.57771274  0.15569029  0.86266958     0.81200
N598        N  0.53123626  0.17649025  0.84732048    -0.79500
C599        C  0.48539037  0.15349270  0.86124231     0.81200
N600        N  0.48636991  0.10774180  0.88728948    -0.81300
C601        C  0.64181064  0.23708971  0.54566605     0.78700
N602        N  0.66757344  0.23787282  0.49970422    -0.79600
C603        C  0.64152373  0.23648246  0.45376708     0.81200
N604        N  0.58788558  0.23501203  0.45366687    -0.79500
C605        C  0.56058382  0.23529948  0.49978083     0.81200
N606        N  0.58817015  0.23575582  0.54584691    -0.81300
C607        C  0.85669667  0.11401084  0.45424176     0.78700
N608        N  0.90305163  0.08888479  0.45541127    -0.79600
C609        C  0.92553977  0.07592648  0.50191622     0.81200
N610        N  0.90055817  0.08763795  0.54728024    -0.79500
C611        C  0.85443224  0.11311680  0.54662833     0.81200
N612        N  0.83338064  0.12767596  0.50001666    -0.81300
O613        O  0.83987068  0.20550349  0.90841359    -0.88000
O614        O  0.89308500  0.27985173  0.63402466    -0.88200
O615        O  0.93931869  0.16760989  0.76970017    -0.89800
O616        O  0.89956907  0.33847143  0.80084302    -0.88600
O617        O  0.82404027  0.38660988  0.79241601    -0.88200
O618        O  0.89451918  0.09434910  0.74320876    -0.89600
O619        O  0.94128371  0.26871552  0.70933536    -0.88000
O620        O  0.91312250  0.23181563  0.86398274    -0.87600
Zr621      Zr  0.88169373  0.24576068  0.77631216     2.84300
O622        O  0.82922319  0.29951479  0.72330387    -1.09600
O623        O  0.83490599  0.17270263  0.80369352    -1.10300
C624        C  0.88941930  0.21694585  0.90559856     1.05100
C625        C  0.93632163  0.28077871  0.66105225     1.05000
C626        C  0.93633553  0.11812320  0.75777173     1.08000
C627        C  0.87293289  0.38186263  0.80241680     1.05800
H628        H  0.88419507  0.18751182  0.68246429     0.31400
O629        O  0.85426664  0.19920085  0.70218299    -1.30500
H630        H  0.82091245  0.29429041  0.85340118     0.31000
O631        O  0.80892916  0.27463562  0.82339469    -1.32200
O632        O  0.72282345  0.24636140  0.59134647    -0.88000
O633        O  0.66929218  0.17552421  0.86652732    -0.89500
O634        O  0.83344694  0.10947639  0.63797278    -0.88100
O635        O  0.76307269  0.38542741  0.69183280    -0.88100
O636        O  0.72930514  0.34361998  0.86250950    -0.87800
O637        O  0.80158677  0.06877374  0.80879620    -0.87600
O638        O  0.66428495  0.11512105  0.69705965    -0.88000
O639        O  0.62303422  0.28521983  0.72970000    -0.87500
O640        O  0.73955063  0.06677402  0.70661544    -0.88500
O641        O  0.66768220  0.35860654  0.75624384    -0.87700
O642        O  0.82338419  0.18497614  0.59019549    -0.88100
O643        O  0.77519090  0.11342425  0.88209267    -0.87800
O644        O  0.73978666  0.26810991  0.91019711    -0.87500
O645        O  0.78859466  0.34047776  0.61833452    -0.87900
O646        O  0.64947829  0.22043795  0.63591268    -0.88200
O647        O  0.62150099  0.18575149  0.79085711    -0.89500
Zr648      Zr  0.80087720  0.25273154  0.64971813     2.83100
Zr649      Zr  0.76190864  0.20081345  0.85020648     2.83500
Zr650      Zr  0.80702812  0.12617313  0.73027622     2.84100
Zr651      Zr  0.75565263  0.32741861  0.76992100     2.83400
Zr652      Zr  0.68120830  0.20745811  0.72352513     2.84200
O653        O  0.70842113  0.25413097  0.79769665    -1.10100
O654        O  0.75411437  0.17879947  0.67642452    -1.09600
C655        C  0.67321855  0.23489062  0.59419983     1.05100
C656        C  0.62614261  0.17446732  0.83936205     1.07700
C657        C  0.83493535  0.13651605  0.59489240     1.05300
C658        C  0.77457311  0.38239625  0.64221792     1.05600
C659        C  0.72835345  0.31657683  0.90566345     1.05200
C660        C  0.78999345  0.07171242  0.85836446     1.04700
C661        C  0.69094264  0.07174877  0.69563795     1.05200
C662        C  0.62593276  0.33478434  0.74132735     1.04700
H663        H  0.71346769  0.12376347  0.78863677     0.31400
O664        O  0.73332784  0.15367487  0.77699512    -1.31200
H665        H  0.70635157  0.30244502  0.67463511     0.31400
O666        O  0.72804421  0.28062221  0.69648934    -1.32600
O667        O  0.22267342  0.20610596  0.09124703    -0.88000
O668        O  0.16964877  0.27798084  0.36695453    -0.88200
O669        O  0.12318371  0.16682681  0.22950259    -0.89800
O670        O  0.16224719  0.33742438  0.19746254    -0.88600
O671        O  0.23813143  0.38518880  0.20548950    -0.88200
O672        O  0.16816617  0.09378335  0.25580365    -0.89600
O673        O  0.12123702  0.26859860  0.29152629    -0.88000
O674        O  0.14929743  0.23178587  0.13600610    -0.87600
Zr675      Zr  0.18050788  0.24538653  0.22370915     2.84300
O676        O  0.23317819  0.29940937  0.27664095    -1.09600
O677        O  0.22755146  0.17244644  0.19577966    -1.10300
C678        C  0.17316304  0.21752033  0.09423732     1.05100
C679        C  0.12626591  0.27934347  0.34024998     1.05000
C680        C  0.12630482  0.11732938  0.24116478     1.08000
C681        C  0.18923498  0.38056603  0.19512269     1.05800
H682        H  0.17840980  0.18669699  0.31716484     0.31400
O683        O  0.20821721  0.19860030  0.29736038    -1.30500
H684        H  0.24157400  0.29347140  0.14647987     0.31000
O685        O  0.25341278  0.27386413  0.17649314    -1.32200
O686        O  0.33965127  0.24645564  0.40787474    -0.88000
O687        O  0.39306781  0.17582200  0.13173486    -0.89500
O688        O  0.23089226  0.10835679  0.36111234    -0.88100
O689        O  0.29987804  0.38498114  0.30758524    -0.88100
O690        O  0.33349039  0.34324122  0.13748012    -0.87800
O691        O  0.26098145  0.06783090  0.19088007    -0.87600
O692        O  0.39891012  0.11465216  0.30131189    -0.88000
O693        O  0.43983075  0.28463008  0.26908259    -0.87500
O694        O  0.32340254  0.06655439  0.29185383    -0.88500
O695        O  0.39498344  0.35796686  0.24319676    -0.87700
O696        O  0.23968756  0.18408191  0.40909037    -0.88100
O697        O  0.28723861  0.11252248  0.11775513    -0.87800
O698        O  0.32364235  0.26768989  0.08940608    -0.87500
O699        O  0.27440307  0.34020811  0.38101973    -0.87900
O700        O  0.41305071  0.22055926  0.36325938    -0.88200
O701        O  0.44109629  0.18519958  0.20739111    -0.89500
Zr702      Zr  0.26174457  0.25225209  0.34975022     2.83100
Zr703      Zr  0.30058090  0.20036329  0.14910378     2.83500
Zr704      Zr  0.25570223  0.12583396  0.26881914     2.84100
Zr705      Zr  0.30680368  0.32682584  0.22967100     2.83400
Zr706      Zr  0.38166529  0.20694922  0.27543155     2.84200
O707        O  0.35414119  0.25367670  0.20167020    -1.10100
O708        O  0.30874938  0.17852638  0.32265855    -1.09600
C709        C  0.38923377  0.23516711  0.40496851     1.05100
C710        C  0.43635832  0.17460591  0.15862217     1.07700
C711        C  0.22929674  0.13526562  0.40435180     1.05300
C712        C  0.28859639  0.38201005  0.35718455     1.05600
C713        C  0.33478921  0.31629975  0.09418863     1.05200
C714        C  0.27254613  0.07078853  0.14139671     1.04700
C715        C  0.37209861  0.07134418  0.30258623     1.05200
C716        C  0.43685234  0.33416529  0.25768460     1.04700
H717        H  0.34914444  0.12330905  0.21004276     0.31400
O718        O  0.32933057  0.15317584  0.22192405    -1.31200
H719        H  0.35628402  0.30191837  0.32457358     0.31400
O720        O  0.33452075  0.27997670  0.30274569    -1.32600
C721        C  0.48540280  0.03247567  0.96249321    -0.10700
C722        C  0.53314593  0.04120233  0.93725319     0.05500
C723        C  0.57920644  0.03334838  0.96630788    -0.04400
C724        C  0.57706929  0.04199583  0.01987889    -0.08900
C725        C  0.52894643  0.05468331  0.04308515     0.04600
C726        C  0.48233540  0.04193504  0.01596364    -0.03900
Br727      Br  0.41361240  0.04291080  0.04652666    -0.03600
H728        H  0.44938913  0.03075453  0.94009709     0.08600
H729        H  0.61346628  0.04589902  0.04131836     0.06600
Br730      Br  0.64664219  0.02555314  0.93415681    -0.04000
C731        C  0.96430107  0.95859248  0.54735793    -0.10700
C732        C  0.95140227  0.93517145  0.49915241     0.05500
C733        C  0.96624851  0.96095329  0.45250150    -0.04400
C734        C  0.97862983  0.01389333  0.45530195    -0.08900
C735        C  0.97051416  0.04019077  0.50266729     0.04600
C736        C  0.97739609  0.01133243  0.54879113    -0.03900
Br737      Br  0.98999406  0.04450070  0.61513313    -0.03600
H738        H  0.95888936  0.93805806  0.58395546     0.08600
H739        H  0.98198288  0.03574328  0.41919103     0.06600
Br740      Br  0.96579055  0.92932072  0.38405760    -0.04000
C741        C  0.48687267  0.92219108  0.03663721    -0.10700
C742        C  0.53432990  0.91265660  0.06231704     0.05500
C743        C  0.58059527  0.92050643  0.03383079    -0.04400
C744        C  0.57877261  0.91170752  0.98021056    -0.08900
C745        C  0.53056685  0.89980154  0.95637085     0.04600
C746        C  0.48403425  0.91320800  0.98302670    -0.03900
Br747      Br  0.41564701  0.91406022  0.95135693    -0.03600
H748        H  0.45077339  0.92429383  0.05865609     0.08600
H749        H  0.61524987  0.90741364  0.95918614     0.06600
Br750      Br  0.64761283  0.92879491  0.06712387    -0.04000
C751        C  0.07443425  0.43344151  0.94831892    -0.10700
C752        C  0.10052479  0.48069200  0.93996978     0.05500
C753        C  0.07079407  0.52656205  0.94507034    -0.04400
C754        C  0.01855260  0.52411211  0.92971232    -0.08900
C755        C  0.99697417  0.47564945  0.91428930     0.04600
C756        C  0.02368099  0.42908179  0.92886461    -0.03900
Br757      Br  0.00012624  0.35880496  0.91483152    -0.03600
H758        H  0.09696498  0.39793828  0.95365173     0.08600
H759        H  0.99750780  0.56038621  0.92386636     0.06600
Br760      Br  0.10341926  0.59407298  0.95183603    -0.04000
C761        C  0.09851591  0.99389784  0.54480751    -0.10700
C762        C  0.11164911  0.01720857  0.49679714     0.05500
C763        C  0.09756979  0.99106710  0.44992942    -0.04400
C764        C  0.08561155  0.93805167  0.45256753    -0.08900
C765        C  0.09363951  0.91207539  0.50004961     0.04600
C766        C  0.08611087  0.94101753  0.54612604    -0.03900
Br767      Br  0.07480178  0.90800573  0.61261527    -0.03600
H768        H  0.10355214  0.01460292  0.58148738     0.08600
H769        H  0.08286806  0.91599727  0.41640523     0.06600
Br770      Br  0.09862965  0.02235257  0.38152436    -0.04000
C771        C  0.04638398  0.42826529  0.06685643    -0.10700
C772        C  0.06776008  0.47683056  0.08196756     0.05500
C773        C  0.04038804  0.52316995  0.06788273    -0.04400
C774        C  0.98921814  0.51838733  0.04963656    -0.08900
C775        C  0.96373963  0.47097831  0.05880873     0.04600
C776        C  0.99381026  0.42534558  0.05296810    -0.03900
Br777      Br  0.96236336  0.35740142  0.04595705    -0.03600
H778        H  0.06799130  0.39220770  0.07200227     0.08600
H779        H  0.96627285  0.55369758  0.04483337     0.06600
Br780      Br  0.06362510  0.59360329  0.08143055    -0.04000
C781        C  0.07599310  0.54335718  0.51760441    -0.10700
C782        C  0.02758616  0.55922059  0.53844142     0.05500
C783        C  0.98120353  0.54631094  0.51048910    -0.04400
C784        C  0.98608127  0.52867754  0.45915378    -0.08900
C785        C  0.03405807  0.53692534  0.43427987     0.04600
C786        C  0.07934222  0.53064330  0.46483168    -0.03900
Br787      Br  0.14763420  0.52387504  0.43437406    -0.03600
H788        H  0.11192538  0.54763505  0.53975664     0.08600
H789        H  0.95083580  0.52463022  0.43581467     0.06600
Br790      Br  0.91089220  0.56061397  0.53351792    -0.04000
C791        C  0.98687789  0.40933721  0.48393825    -0.10700
C792        C  0.03499977  0.39327149  0.46262672     0.05500
C793        C  0.08177881  0.40612001  0.49008895    -0.04400
C794        C  0.07753808  0.42414171  0.54134601    -0.08900
C795        C  0.02979605  0.41637006  0.56673124     0.04600
C796        C  0.98425529  0.42280328  0.53660031    -0.03900
Br797      Br  0.91642277  0.42994789  0.56801105    -0.03600
H798        H  0.95068492  0.40490105  0.46225267     0.08600
H799        H  0.11302195  0.42805476  0.56434878     0.06600
Br800      Br  0.15190406  0.39109198  0.46683474    -0.04000
C801        C  0.49388270  0.02396229  0.55397064    -0.10700
C802        C  0.46777755  0.97641799  0.56137809     0.05500
C803        C  0.49639704  0.93026597  0.55322692    -0.04400
C804        C  0.54961401  0.93145518  0.56417534    -0.08900
C805        C  0.57338644  0.97922270  0.57750961     0.04600
C806        C  0.54723463  0.02628645  0.56443994    -0.03900
Br807      Br  0.57892698  0.09466831  0.56537016    -0.03600
H808        H  0.47202912  0.06022569  0.55222391     0.08600
H809        H  0.57034328  0.89476496  0.56828878     0.06600
Br810      Br  0.46316658  0.86381960  0.54150294    -0.04000
C811        C  0.56836841  0.02074306  0.44513397    -0.10700
C812        C  0.59422673  0.97327082  0.43639312     0.05500
C813        C  0.56527625  0.92700144  0.44304294    -0.04400
C814        C  0.51214916  0.92881549  0.43207933    -0.08900
C815        C  0.48875650  0.97700559  0.42001886     0.04600
C816        C  0.51509134  0.02357593  0.43437753    -0.03900
Br817      Br  0.48356094  0.09196682  0.43455626    -0.03600
H818        H  0.59042496  0.05684585  0.44799846     0.08600
H819        H  0.49124923  0.89232274  0.42675258     0.06600
Br820      Br  0.59753785  0.85971889  0.45195418    -0.04000
C821        C  0.58572643  0.43934763  0.04605500    -0.10700
C822        C  0.59397434  0.41208207  0.99926594     0.05500
C823        C  0.58596409  0.43954621  0.95244080    -0.04400
C824        C  0.59868471  0.49240479  0.95225343    -0.08900
C825        C  0.61055916  0.51746064  0.99984753     0.04600
C826        C  0.59555695  0.49287790  0.04706267    -0.03900
Br827      Br  0.59207847  0.52783084  0.11380135    -0.03600
H828        H  0.58323657  0.41848040  0.08281034     0.08600
H829        H  0.60443096  0.51183764  0.91511240     0.06600
Br830      Br  0.57333504  0.40414085  0.88718983    -0.04000
C831        C  0.47594758  0.51306689  0.04684989    -0.10700
C832        C  0.46862648  0.53925674  0.99937061     0.05500
C833        C  0.47711084  0.51076640  0.95321529    -0.04400
C834        C  0.46535434  0.45771068  0.95393849    -0.08900
C835        C  0.45235987  0.43377471  0.00166272     0.04600
C836        C  0.46563750  0.45973102  0.04885498    -0.03900
Br837      Br  0.46445387  0.42788800  0.11707377    -0.03600
H838        H  0.47726999  0.53484710  0.08324922     0.08600
H839        H  0.46082264  0.43723262  0.91706848     0.06600
Br840      Br  0.49020783  0.54452652  0.88745172    -0.04000
loop_ 
_geom_bond_atom_site_label_1 
_geom_bond_atom_site_label_2 
_geom_bond_distance 
_geom_bond_site_symmetry_2 
_ccdc_geom_bond_type 
C1            N2   1.372       .  A
C1            N6   1.349       .  A
C1          C312   1.479       .  S
N2            C3   1.372       .  A
C3            N4   1.370   1_556  A
C3           C53   1.513       .  S
N4            C5   1.371       .  A
C5            N6   1.349   1_554  A
C5          C168   1.476       .  S
C7            N8   1.347       .  A
C7           N12   1.360   1_554  A
C7          C204   1.458       .  S
N8            C9   1.359   1_554  A
C9           N10   1.358       .  A
C9          C832   1.467       .  S
N10          C11   1.348       .  A
C11          N12   1.360       .  A
C11         C347   1.459       .  S
C13          N14   1.373       .  A
C13          N18   1.350       .  A
C13         C546   1.483       .  S
N14          C15   1.373   1_654  A
C15          N16   1.370   1_455  A
C15          C63   1.514       .  S
N16          C17   1.371       .  A
C17          N18   1.350   1_556  A
C17         C624   1.477       .  S
C19          N20   1.360   1_556  A
C19          N24   1.345       .  A
C19         C659   1.459       .  S
N20          C21   1.361       .  A
C21          N22   1.351       .  A
C21         C582   1.461       .  S
N22          C23   1.360   1_554  A
C23          N24   1.357       .  A
C23         C822   1.468       .  S
C25          N26   1.372       .  A
C25          N30   1.350       .  A
C25         C390   1.480       .  S
N26          C27   1.372       .  A
C27          N28   1.370   1_565  A
C27          C75   1.513   1_554  S
N28          C29   1.371       .  A
C29          N30   1.349   1_545  A
C29         C581   1.478       .  S
C31          N32   1.350       .  A
C31          N36   1.360   1_545  A
C31         C584   1.460       .  S
N32          C33   1.361   1_545  A
C33          N34   1.356       .  A
C33         C812   1.468       .  S
N34          C35   1.345       .  A
C35          N36   1.359       .  A
C35         C425   1.457       .  S
C37          N38   1.349   1_545  A
C37          N42   1.373       .  A
C37         C234   1.480       .  S
N38          C39   1.349       .  A
C39          N40   1.371       .  A
C39         C348   1.476       .  S
N40          C41   1.370       .  A
C41          N42   1.372   1_565  A
C41          C87   1.513   1_556  S
C43          N44   1.347       .  A
C43          N48   1.359       .  A
C43         C349   1.457       .  S
N44          C45   1.357       .  A
C45          N46   1.360   1_565  A
C45         C802   1.468       .  S
N46          C47   1.348       .  A
C47          N48   1.359   1_545  A
C47         C270   1.459       .  S
C49          N50   1.348   1_554  A
C49          N54   1.372       .  A
C49         C392   1.477       .  S
N50          C51   1.348       .  A
C51          N52   1.371       .  A
C51         C480   1.476       .  S
N52          C53   1.370   1_655  A
C53          N54   1.372   1_456  A
C55          N56   1.346       .  A
C55          N60   1.358   1_554  A
C55         C391   1.460       .  S
N56          C57   1.356   1_554  A
C57          N58   1.362       .  A
C57         C825   1.466       .  S
N58          C59   1.352       .  A
C59          N60   1.359       .  A
C59         C516   1.465       .  S
C61          N62   1.374       .  A
C61          N66   1.348       .  A
C61         C237   1.481       .  S
N62          C63   1.373       .  A
C63          N64   1.369   1_556  A
N64          C65   1.370       .  A
C65          N66   1.349   1_554  A
C65         C678   1.473       .  S
C67          N68   1.360       .  A
C67          N72   1.350       .  A
C67         C235   1.462       .  S
N68          C69   1.358   1_556  A
C69          N70   1.345       .  A
C69         C713   1.462       .  S
N70          C71   1.355       .  A
C71          N72   1.360   1_554  A
C71         C835   1.464       .  S
C73          N74   1.370       .  A
C73          N78   1.349       .  A
C73         C515   1.475       .  S
N74          C75   1.370       .  A
C75          N76   1.372   1_565  A
N76          C77   1.373       .  A
C77          N78   1.349   1_545  A
C77         C660   1.479       .  S
C79          N80   1.345       .  A
C79          N84   1.359   1_545  A
C79         C661   1.459       .  S
N80          C81   1.354   1_545  A
C81          N82   1.363       .  A
C81         C805   1.466       .  S
N82          C83   1.352       .  A
C83          N84   1.359       .  A
C83         C518   1.468       .  S
C85          N86   1.371       .  A
C85          N90   1.350   1_545  A
C85         C714   1.476       .  S
N86          C87   1.370   1_545  A
C87          N88   1.372       .  A
N88          C89   1.373       .  A
C89          N90   1.349       .  A
C89         C203   1.480       .  S
C91          N92   1.349       .  A
C91          N96   1.359       .  A
C91         C206   1.463       .  S
N92          C93   1.360       .  A
C93          N94   1.355   1_565  A
C93         C815   1.464       .  S
N94          C95   1.346       .  A
C95          N96   1.359   1_545  A
C95         C715   1.460       .  S
C97          N98   1.349   1_655  A
C97         N102   1.371       .  A
C97         C626   1.476       .  S
N98          C99   1.349       .  A
C99         N100   1.372       .  A
C99         C269   1.478       .  S
N100        C101   1.371       .  A
C101        N102   1.371   1_455  A
C101        C111   1.514   1_545  S
C103        N104   1.346       .  A
C103        N108   1.359   1_655  A
C103        C625   1.455       .  S
N104        C105   1.356   1_655  A
C105        N106   1.361       .  A
C105        C795   1.472       .  S
N106        C107   1.349       .  A
C107        N108   1.359       .  A
C107        C272   1.457       .  S
C109        N110   1.373       .  A
C109        N114   1.349       .  A
C109        C314   1.480       .  S
N110        C111   1.372       .  A
C111        N112   1.370   1_455  A
N112        C113   1.371       .  A
C113        N114   1.350   1_655  A
C113        C483   1.477       .  S
C115        N116   1.350       .  A
C115        N120   1.360       .  A
C115        C313   1.465       .  S
N116        C117   1.362       .  A
C117        N118   1.354   1_455  A
C117        C782   1.468       .  S
N118        C119   1.346       .  A
C119        N120   1.358   1_655  A
C119        C481   1.461       .  S
C121        N122   1.349       .  A
C121        N126   1.372       .  A
C121        C171   1.476       .  S
N122        C123   1.349   1_455  A
C123        N124   1.372       .  A
C123        C426   1.477       .  S
N124        C125   1.371   1_655  A
C125        N126   1.371       .  A
C125        C135   1.514   1_565  S
C127        N128   1.348       .  A
C127        N132   1.360       .  A
C127        C169   1.459       .  S
N128        C129   1.357       .  A
C129        N130   1.361   1_455  A
C129        C785   1.472       .  S
N130        C131   1.348       .  A
C131        N132   1.360   1_655  A
C131        C427   1.459       .  S
C133        N134   1.372       .  A
C133        N138   1.349   1_655  A
C133        C549   1.479       .  S
N134        C135   1.371   1_655  A
C135        N136   1.371       .  A
N136        C137   1.372       .  A
C137        N138   1.349       .  A
C137        C680   1.478       .  S
C139        N140   1.345       .  A
C139        N144   1.357       .  A
C139        C679   1.459       .  S
N140        C141   1.353       .  A
C141        N142   1.363   1_455  A
C141        C792   1.468       .  S
N142        C143   1.352       .  A
C143        N144   1.359   1_655  A
C143        C547   1.467       .  S
C145        N146   1.348       .  A
C145        N150   1.372       .  A
C145        C201   1.478       .  S
N146        C147   1.349       .  A
C147        N148   1.371       .  A
C147        C712   1.476       .  S
N148        C149   1.370       .  A
C149        N150   1.372       .  A
C149        C291   1.513       .  S
C151        N152   1.355       .  A
C151        N156   1.363       .  A
C151        C772   1.470       .  S
N152        C153   1.347       .  A
C153        N154   1.358       .  A
C153        C170   1.462       .  S
N154        C155   1.359       .  A
C155        N156   1.352       .  A
C155        C681   1.467       .  S
O157       Zr193   2.492       .  S
O157        C168   1.303       .  A
O158       Zr192   2.490       .  S
O158        C169   1.302       .  A
O159       Zr165   2.490       .  S
O159        C170   1.302       .  A
O160       Zr165   2.490       .  S
O160        C171   1.303       .  A
O161       Zr195   2.404       .  S
O161        C171   1.284       .  A
O162       Zr194   2.382       .  S
O162        C170   1.281       .  A
O163       Zr165   2.375       .  S
O163        C169   1.280       .  A
O164       Zr165   2.404       .  S
O164        C168   1.284       .  A
Zr165       O166   2.339       .  S
Zr165       O167   2.340       .  S
Zr165       O175   2.329       .  S
Zr165       O173   2.353       .  S
O166       Zr192   2.350       .  S
O166       Zr195   2.340       .  S
O167       Zr193   2.343       .  S
O167       Zr194   2.352       .  S
H172        O173   0.966       .  S
O173       Zr192   2.340       .  S
O173       Zr194   2.342       .  S
H174        O175   0.965       .  S
O175       Zr193   2.329       .  S
O175       Zr195   2.329       .  S
O176       Zr192   2.488       .  S
O176        C199   1.303       .  A
O177       Zr193   2.497       .  S
O177        C200   1.303       .  A
O178       Zr194   2.495       .  S
O178        C201   1.304       .  A
O179       Zr195   2.495       .  S
O179        C202   1.303       .  A
O180       Zr195   2.497       .  S
O180        C203   1.305       .  A
O181       Zr194   2.493       .  S
O181        C204   1.303       .  A
O182       Zr196   2.492       .  S
O182        C205   1.304       .  A
O183       Zr196   2.493       .  S
O183        C206   1.303       .  A
O184       Zr194   2.406       .  S
O184        C205   1.284       .  A
O185       Zr195   2.376       .  S
O185        C206   1.280       .  A
O186       Zr192   2.402       .  S
O186        C201   1.283       .  A
O187       Zr193   2.372       .  S
O187        C204   1.279       .  A
O188       Zr193   2.406       .  S
O188        C203   1.284       .  A
O189       Zr192   2.373       .  S
O189        C202   1.279       .  A
O190       Zr196   2.403       .  S
O190        C199   1.283       .  A
O191       Zr196   2.372       .  S
O191        C200   1.279       .  A
Zr192       O198   2.329       .  S
Zr192       O210   2.341       .  S
Zr193       O197   2.339       .  S
Zr193       O208   2.353       .  S
Zr194       O198   2.331       .  S
Zr194       O208   2.342       .  S
Zr195       O197   2.341       .  S
Zr195       O210   2.354       .  S
Zr196       O197   2.351       .  S
Zr196       O198   2.329       .  S
Zr196       O210   2.339       .  S
Zr196       O208   2.342       .  S
C199        C277   1.476       .  S
C200        C375   1.461       .  S
C202        C285   1.459       .  S
C205        C369   1.479       .  S
H207        O208   0.965       .  S
H209        O210   0.965       .  S
C211        N212   1.371       .  A
C211        N216   1.349       .  A
C211        C709   1.475       .  S
N212        C213   1.370       .  A
C213        N214   1.372       .  A
C213        C605   1.514       .  S
N214        C215   1.373       .  A
C215        N216   1.348       .  A
C215        C271   1.478       .  S
C217        N218   1.348       .  A
C217        N222   1.358       .  A
C217        C711   1.462       .  S
N218        C219   1.356       .  A
C219        N220   1.360       .  A
C219        C762   1.466       .  S
N220        C221   1.349       .  A
C221        N222   1.359       .  A
C221        C266   1.462       .  S
O223       Zr259   2.498       .  S
O223        C234   1.305       .  A
O224       Zr258   2.493       .  S
O224        C235   1.302       .  A
O225       Zr231   2.494       .  S
O225        C236   1.303       .  A
O226       Zr231   2.503       .  S
O226        C237   1.306       .  A
O227       Zr261   2.402       .  S
O227        C237   1.283       .  A
O228       Zr260   2.371       .  S
O228        C236   1.279       .  A
O229       Zr231   2.374       .  S
O229        C235   1.280       .  A
O230       Zr231   2.405       .  S
O230        C234   1.284       .  A
Zr231       O232   2.339       .  S
Zr231       O233   2.341       .  S
Zr231       O241   2.329       .  S
Zr231       O239   2.356       .  S
O232       Zr258   2.352       .  S
O232       Zr261   2.339       .  S
O233       Zr259   2.339       .  S
O233       Zr260   2.352       .  S
C236        C599   1.457       .  S
H238        O239   0.965       .  S
O239       Zr258   2.338       .  S
O239       Zr260   2.341       .  S
H240        O241   0.965       .  S
O241       Zr259   2.329       .  S
O241       Zr261   2.330       .  S
O242       Zr258   2.493       .  S
O242        C265   1.304       .  A
O243       Zr259   2.492       .  S
O243        C266   1.302       .  A
O244       Zr260   2.495       .  S
O244        C267   1.304       .  A
O245       Zr261   2.498       .  S
O245        C268   1.303       .  A
O246       Zr261   2.498       .  S
O246        C269   1.305       .  A
O247       Zr260   2.494       .  S
O247        C270   1.302       .  A
O248       Zr262   2.497       .  S
O248        C271   1.305       .  A
O249       Zr262   2.493       .  S
O249        C272   1.302       .  A
O250       Zr260   2.399       .  S
O250        C271   1.282       .  A
O251       Zr261   2.371       .  S
O251        C272   1.279       .  A
O252       Zr258   2.403       .  S
O252        C267   1.283       .  A
O253       Zr259   2.371       .  S
O253        C270   1.279       .  A
O254       Zr259   2.400       .  S
O254        C269   1.283       .  A
O255       Zr258   2.368       .  S
O255        C268   1.278       .  A
O256       Zr262   2.406       .  S
O256        C265   1.284       .  A
O257       Zr262   2.379       .  S
O257        C266   1.281       .  A
Zr258       O264   2.327       .  S
Zr258       O276   2.342       .  S
Zr259       O263   2.341       .  S
Zr259       O274   2.355       .  S
Zr260       O264   2.328       .  S
Zr260       O274   2.339       .  S
Zr261       O263   2.340       .  S
Zr261       O276   2.354       .  S
Zr262       O263   2.352       .  S
Zr262       O264   2.330       .  S
Zr262       O276   2.340       .  S
Zr262       O274   2.342       .  S
C265        C293   1.479       .  S
C267        C589   1.479       .  S
C268        C295   1.458       .  S
H273        O274   0.965       .  S
H275        O276   0.965       .  S
C277        N278   1.349       .  A
C277        N282   1.371       .  A
N278        C279   1.349       .  A
C279        N280   1.372       .  A
C279        C343   1.480       .  S
N280        C281   1.372       .  A
C281        N282   1.370       .  A
C281        C437   1.513       .  S
C283        N284   1.360       .  A
C283        N288   1.347       .  A
C283        C345   1.459       .  S
N284        C285   1.360       .  A
C285        N286   1.348       .  A
N286        C287   1.360       .  A
C287        N288   1.357       .  A
C287        C765   1.468       .  S
C289        N290   1.371       .  A
C289        N294   1.350       .  A
C289        C346   1.476       .  S
N290        C291   1.370       .  A
C291        N292   1.372       .  A
N292        C293   1.372       .  A
C293        N294   1.349       .  A
C295        N296   1.360       .  A
C295        N300   1.349       .  A
N296        C297   1.359       .  A
C297        N298   1.345       .  A
C297        C315   1.455       .  S
N298        C299   1.355       .  A
C299        N300   1.361       .  A
C299        C752   1.472       .  S
O301       Zr337   2.491       .  S
O301        C312   1.303       .  A
O302       Zr336   2.498       .  S
O302        C313   1.304       .  A
O303       Zr309   2.495       .  S
O303        C314   1.304       .  A
O304       Zr309   2.491       .  S
O304        C315   1.302       .  A
O305       Zr339   2.368       .  S
O305        C315   1.278       .  A
O306       Zr338   2.404       .  S
O306        C314   1.283       .  A
O307       Zr309   2.377       .  S
O307        C313   1.281       .  A
O308       Zr309   2.408       .  S
O308        C312   1.284       .  A
Zr309       O310   2.351       .  S
Zr309       O311   2.330       .  S
Zr309       O319   2.340       .  S
Zr309       O317   2.343       .  S
O310       Zr336   2.339       .  S
O310       Zr339   2.339       .  S
O311       Zr337   2.329       .  S
O311       Zr338   2.329       .  S
H316        O317   0.965       .  S
O317       Zr336   2.356       .  S
O317       Zr338   2.339       .  S
H318        O319   0.965       .  S
O319       Zr337   2.341       .  S
O319       Zr339   2.353       .  S
O320       Zr336   2.497       .  S
O320        C343   1.305       .  A
O321       Zr337   2.492       .  S
O321        C344   1.302       .  A
O322       Zr338   2.492       .  S
O322        C345   1.302       .  A
O323       Zr339   2.490       .  S
O323        C346   1.303       .  A
O324       Zr339   2.493       .  S
O324        C347   1.302       .  A
O325       Zr338   2.489       .  S
O325        C348   1.303       .  A
O326       Zr340   2.494       .  S
O326        C349   1.303       .  A
O327       Zr340   2.498       .  S
O327        C350   1.305       .  A
O328       Zr338   2.370       .  S
O328        C349   1.279       .  A
O329       Zr339   2.402       .  S
O329        C350   1.283       .  A
O330       Zr336   2.373       .  S
O330        C345   1.279       .  A
O331       Zr337   2.403       .  S
O331        C348   1.283       .  A
O332       Zr337   2.374       .  S
O332        C347   1.279       .  A
O333       Zr336   2.404       .  S
O333        C346   1.284       .  A
O334       Zr340   2.408       .  S
O334        C343   1.284       .  A
O335       Zr340   2.380       .  S
O335        C344   1.281       .  A
Zr336       O342   2.339       .  S
Zr336       O354   2.330       .  S
Zr337       O341   2.352       .  S
Zr337       O352   2.340       .  S
Zr338       O342   2.350       .  S
Zr338       O352   2.342       .  S
Zr339       O341   2.339       .  S
Zr339       O354   2.328       .  S
Zr340       O341   2.340       .  S
Zr340       O342   2.341       .  S
Zr340       O354   2.330       .  S
Zr340       O352   2.355       .  S
C344        C453   1.463       .  S
C350        C447   1.479       .  S
H351        O352   0.965       .  S
H353        O354   0.965       .  S
C355        N356   1.371       .  A
C355        N360   1.349       .  A
C355        C579   1.476       .  S
N356        C357   1.370       .  A
C357        N358   1.371       .  A
C357        C461   1.513       .  S
N358        C359   1.372       .  A
C359        N360   1.349       .  A
C359        C421   1.478       .  S
C361        N362   1.352       .  A
C361        N366   1.360       .  A
C361        C423   1.465       .  S
N362        C363   1.364       .  A
C363        N364   1.355       .  A
C363        C775   1.474       .  S
N364        C365   1.345       .  A
C365        N366   1.360       .  A
C365        C548   1.454       .  S
C367        N368   1.349       .  A
C367        N372   1.371       .  A
C367        C424   1.477       .  S
N368        C369   1.349       .  A
C369        N370   1.372       .  A
N370        C371   1.371       .  A
C371        N372   1.370       .  A
C371        C527   1.514       .  S
C373        N374   1.361       .  A
C373        N378   1.357       .  A
C373        C742   1.468       .  S
N374        C375   1.349       .  A
C375        N376   1.361       .  A
N376        C377   1.360       .  A
C377        N378   1.346       .  A
C377        C393   1.459       .  S
O379       Zr415   2.490       .  S
O379        C390   1.303       .  A
O380       Zr414   2.491       .  S
O380        C391   1.302       .  A
O381       Zr387   2.491       .  S
O381        C392   1.303       .  A
O382       Zr387   2.491       .  S
O382        C393   1.302       .  A
O383       Zr417   2.375       .  S
O383        C393   1.280       .  A
O384       Zr416   2.403       .  S
O384        C392   1.283       .  A
O385       Zr387   2.375       .  S
O385        C391   1.280       .  A
O386       Zr387   2.410       .  S
O386        C390   1.285       .  A
Zr387       O388   2.352       .  S
Zr387       O389   2.328       .  S
Zr387       O397   2.338       .  S
Zr387       O395   2.343       .  S
O388       Zr414   2.341       .  S
O388       Zr417   2.340       .  S
O389       Zr415   2.328       .  S
O389       Zr416   2.330       .  S
H394        O395   0.966       .  S
O395       Zr414   2.354       .  S
O395       Zr416   2.337       .  S
H396        O397   0.966       .  S
O397       Zr415   2.341       .  S
O397       Zr417   2.353       .  S
O398       Zr414   2.494       .  S
O398        C421   1.304       .  A
O399       Zr415   2.491       .  S
O399        C422   1.302       .  A
O400       Zr416   2.501       .  S
O400        C423   1.304       .  A
O401       Zr417   2.491       .  S
O401        C424   1.303       .  A
O402       Zr417   2.492       .  S
O402        C425   1.302       .  A
O403       Zr416   2.493       .  S
O403        C426   1.304       .  A
O404       Zr418   2.498       .  S
O404        C427   1.304       .  A
O405       Zr418   2.502       .  S
O405        C428   1.306       .  A
O406       Zr416   2.371       .  S
O406        C427   1.279       .  A
O407       Zr417   2.406       .  S
O407        C428   1.284       .  A
O408       Zr414   2.378       .  S
O408        C423   1.280       .  A
O409       Zr415   2.400       .  S
O409        C426   1.283       .  A
O410       Zr415   2.371       .  S
O410        C425   1.279       .  A
O411       Zr414   2.407       .  S
O411        C424   1.284       .  A
O412       Zr418   2.405       .  S
O412        C421   1.284       .  A
O413       Zr418   2.379       .  S
O413        C422   1.281       .  A
Zr414       O420   2.340       .  S
Zr414       O432   2.330       .  S
Zr415       O419   2.350       .  S
Zr415       O430   2.340       .  S
Zr416       O420   2.352       .  S
Zr416       O430   2.344       .  S
Zr417       O419   2.339       .  S
Zr417       O432   2.330       .  S
Zr418       O419   2.340       .  S
Zr418       O420   2.343       .  S
Zr418       O432   2.331       .  S
Zr418       O430   2.354       .  S
C422        C443   1.463       .  S
C428        C435   1.482       .  S
H429        O430   0.966       .  S
H431        O432   0.965       .  S
C433        N434   1.350       .  A
C433        N438   1.370       .  A
C433        C511   1.475       .  S
N434        C435   1.349       .  A
C435        N436   1.373       .  A
N436        C437   1.373       .  A
C437        N438   1.369       .  A
C439        N440   1.350       .  A
C439        N444   1.360       .  A
C439        C514   1.466       .  S
N440        C441   1.361       .  A
C441        N442   1.356       .  A
C441        C732   1.466       .  S
N442        C443   1.347       .  A
C443        N444   1.359       .  A
C445        N446   1.349       .  A
C445        N450   1.372       .  A
C445        C517   1.477       .  S
N446        C447   1.348       .  A
C447        N448   1.373       .  A
N448        C449   1.372       .  A
C449        N450   1.371       .  A
C449        C593   1.515       .  S
C451        N452   1.357       .  A
C451        N456   1.361       .  A
C451        C745   1.466       .  S
N452        C453   1.348       .  A
C453        N454   1.359       .  A
N454        C455   1.359       .  A
C455        N456   1.349       .  A
C455        C512   1.463       .  S
C457        N458   1.349       .  A
C457        N462   1.372       .  A
C457        C658   1.479       .  S
N458        C459   1.350       .  A
C459        N460   1.371       .  A
C459        C513   1.477       .  S
N460        C461   1.370       .  A
C461        N462   1.371       .  A
C463        N464   1.362       .  A
C463        N468   1.355       .  A
C463        C755   1.471       .  S
N464        C465   1.352       .  A
C465        N466   1.360       .  A
C465        C482   1.468       .  S
N466        C467   1.359       .  A
C467        N468   1.347       .  A
C467        C627   1.465       .  S
O469       Zr505   2.491       .  S
O469        C480   1.303       .  A
O470       Zr504   2.485       .  S
O470        C481   1.301       .  A
O471       Zr477   2.493       .  S
O471        C482   1.302       .  A
O472       Zr477   2.488       .  S
O472        C483   1.303       .  A
O473       Zr507   2.409       .  S
O473        C483   1.285       .  A
O474       Zr506   2.388       .  S
O474        C482   1.283       .  A
O475       Zr477   2.380       .  S
O475        C481   1.281       .  A
O476       Zr477   2.403       .  S
O476        C480   1.283       .  A
Zr477       O478   2.341       .  S
Zr477       O479   2.342       .  S
Zr477       O487   2.331       .  S
Zr477       O485   2.352       .  S
O478       Zr504   2.348       .  S
O478       Zr507   2.339       .  S
O479       Zr505   2.342       .  S
O479       Zr506   2.351       .  S
H484        O485   0.965       .  S
O485       Zr504   2.341       .  S
O485       Zr506   2.342       .  S
H486        O487   0.965       .  S
O487       Zr505   2.333       .  S
O487       Zr507   2.333       .  S
O488       Zr504   2.482       .  S
O488        C511   1.302       .  A
O489       Zr505   2.491       .  S
O489        C512   1.302       .  A
O490       Zr506   2.488       .  S
O490        C513   1.303       .  A
O491       Zr507   2.494       .  S
O491        C514   1.303       .  A
O492       Zr507   2.488       .  S
O492        C515   1.303       .  A
O493       Zr506   2.487       .  S
O493        C516   1.301       .  A
O494       Zr508   2.489       .  S
O494        C517   1.303       .  A
O495       Zr508   2.497       .  S
O495        C518   1.303       .  A
O496       Zr506   2.407       .  S
O496        C517   1.284       .  A
O497       Zr507   2.384       .  S
O497        C518   1.282       .  A
O498       Zr504   2.406       .  S
O498        C513   1.284       .  A
O499       Zr505   2.389       .  S
O499        C516   1.283       .  A
O500       Zr505   2.406       .  S
O500        C515   1.284       .  A
O501       Zr504   2.383       .  S
O501        C514   1.281       .  A
O502       Zr508   2.406       .  S
O502        C511   1.284       .  A
O503       Zr508   2.381       .  S
O503        C512   1.281       .  A
Zr504       O510   2.331       .  S
Zr504       O522   2.340       .  S
Zr505       O509   2.344       .  S
Zr505       O520   2.351       .  S
Zr506       O510   2.333       .  S
Zr506       O520   2.343       .  S
Zr507       O509   2.343       .  S
Zr507       O522   2.350       .  S
Zr508       O509   2.350       .  S
Zr508       O510   2.333       .  S
Zr508       O522   2.340       .  S
Zr508       O520   2.344       .  S
H519        O520   0.965       .  S
H521        O522   0.964       .  S
C523        N524   1.350       .  A
C523        N528   1.371       .  A
C523        C716   1.478       .  S
N524        C525   1.350       .  A
C525        N526   1.373       .  A
C525        C583   1.481       .  S
N526        C527   1.372       .  A
C527        N528   1.370       .  A
C529        N530   1.360       .  A
C529        N534   1.355       .  A
C529        C725   1.465       .  S
N530        C531   1.349       .  A
C531        N532   1.360       .  A
C531        C578   1.463       .  S
N532        C533   1.359       .  A
C533        N534   1.347       .  A
C533        C710   1.461       .  S
O535       Zr571   2.496       .  S
O535        C546   1.304       .  A
O536       Zr570   2.494       .  S
O536        C547   1.302       .  A
O537       Zr543   2.486       .  S
O537        C548   1.301       .  A
O538       Zr543   2.496       .  S
O538        C549   1.305       .  A
O539       Zr573   2.404       .  S
O539        C549   1.283       .  A
O540       Zr572   2.374       .  S
O540        C548   1.279       .  A
O541       Zr543   2.383       .  S
O541        C547   1.282       .  A
O542       Zr543   2.414       .  S
O542        C546   1.285       .  A
Zr543       O544   2.339       .  S
Zr543       O545   2.343       .  S
Zr543       O553   2.329       .  S
Zr543       O551   2.354       .  S
O544       Zr570   2.353       .  S
O544       Zr573   2.340       .  S
O545       Zr571   2.341       .  S
O545       Zr572   2.353       .  S
H550        O551   0.965       .  S
O551       Zr570   2.337       .  S
O551       Zr572   2.341       .  S
H552        O553   0.965       .  S
O553       Zr571   2.331       .  S
O553       Zr573   2.329       .  S
O554       Zr570   2.493       .  S
O554        C577   1.304       .  A
O555       Zr571   2.496       .  S
O555        C578   1.303       .  A
O556       Zr572   2.488       .  S
O556        C579   1.303       .  A
O557       Zr573   2.496       .  S
O557        C580   1.303       .  A
O558       Zr573   2.496       .  S
O558        C581   1.304       .  A
O559       Zr572   2.493       .  S
O559        C582   1.302       .  A
O560       Zr574   2.498       .  S
O560        C583   1.305       .  A
O561       Zr574   2.497       .  S
O561        C584   1.303       .  A
O562       Zr572   2.405       .  S
O562        C583   1.284       .  A
O563       Zr573   2.372       .  S
O563        C584   1.279       .  A
O564       Zr570   2.403       .  S
O564        C579   1.283       .  A
O565       Zr571   2.378       .  S
O565        C582   1.280       .  A
O566       Zr571   2.404       .  S
O566        C581   1.284       .  A
O567       Zr570   2.369       .  S
O567        C580   1.279       .  A
O568       Zr574   2.403       .  S
O568        C577   1.283       .  A
O569       Zr574   2.377       .  S
O569        C578   1.280       .  A
Zr570       O576   2.329       .  S
Zr570       O588   2.342       .  S
Zr571       O575   2.342       .  S
Zr571       O586   2.354       .  S
Zr572       O576   2.329       .  S
Zr572       O586   2.340       .  S
Zr573       O575   2.343       .  S
Zr573       O588   2.354       .  S
Zr574       O575   2.353       .  S
Zr574       O576   2.331       .  S
Zr574       O588   2.341       .  S
Zr574       O586   2.343       .  S
C577        C603   1.478       .  S
C580        C607   1.459       .  S
H585        O586   0.965       .  S
H587        O588   0.965       .  S
C589        N590   1.349       .  A
C589        N594   1.372       .  A
N590        C591   1.350       .  A
C591        N592   1.371       .  A
C591        C662   1.478       .  S
N592        C593   1.371       .  A
C593        N594   1.371       .  A
C595        N596   1.356       .  A
C595        N600   1.359       .  A
C595        C722   1.466       .  S
N596        C597   1.346       .  A
C597        N598   1.359       .  A
C597        C656   1.457       .  S
N598        C599   1.360       .  A
C599        N600   1.348       .  A
C601        N602   1.349       .  A
C601        N606   1.372       .  A
C601        C655   1.477       .  S
N602        C603   1.349       .  A
C603        N604   1.372       .  A
N604        C605   1.371       .  A
C605        N606   1.371       .  A
C607        N608   1.349       .  A
C607        N612   1.359       .  A
N608        C609   1.361       .  A
C609        N610   1.358       .  A
C609        C735   1.469       .  S
N610        C611   1.348       .  A
C611        N612   1.359       .  A
C611        C657   1.459       .  S
O613       Zr649   2.487       .  S
O613        C624   1.302       .  A
O614       Zr648   2.491       .  S
O614        C625   1.302       .  A
O615       Zr621   2.489       .  S
O615        C626   1.303       .  A
O616       Zr621   2.492       .  S
O616        C627   1.303       .  A
O617       Zr651   2.380       .  S
O617        C627   1.281       .  A
O618       Zr650   2.403       .  S
O618        C626   1.283       .  A
O619       Zr621   2.369       .  S
O619        C625   1.279       .  A
O620       Zr621   2.406       .  S
O620        C624   1.284       .  A
Zr621       O622   2.351       .  S
Zr621       O623   2.328       .  S
Zr621       O631   2.337       .  S
Zr621       O629   2.341       .  S
O622       Zr648   2.340       .  S
O622       Zr651   2.340       .  S
O623       Zr649   2.329       .  S
O623       Zr650   2.329       .  S
H628        O629   0.965       .  S
O629       Zr648   2.353       .  S
O629       Zr650   2.338       .  S
H630        O631   0.965       .  S
O631       Zr649   2.342       .  S
O631       Zr651   2.355       .  S
O632       Zr648   2.493       .  S
O632        C655   1.304       .  A
O633       Zr649   2.491       .  S
O633        C656   1.302       .  A
O634       Zr650   2.492       .  S
O634        C657   1.302       .  A
O635       Zr651   2.497       .  S
O635        C658   1.305       .  A
O636       Zr651   2.496       .  S
O636        C659   1.303       .  A
O637       Zr650   2.493       .  S
O637        C660   1.304       .  A
O638       Zr652   2.491       .  S
O638        C661   1.302       .  A
O639       Zr652   2.489       .  S
O639        C662   1.303       .  A
O640       Zr650   2.374       .  S
O640        C661   1.280       .  A
O641       Zr651   2.412       .  S
O641        C662   1.285       .  A
O642       Zr648   2.375       .  S
O642        C657   1.280       .  A
O643       Zr649   2.404       .  S
O643        C660   1.283       .  A
O644       Zr649   2.372       .  S
O644        C659   1.279       .  A
O645       Zr648   2.405       .  S
O645        C658   1.284       .  A
O646       Zr652   2.403       .  S
O646        C655   1.283       .  A
O647       Zr652   2.370       .  S
O647        C656   1.279       .  A
Zr648       O654   2.340       .  S
Zr648       O666   2.327       .  S
Zr649       O653   2.352       .  S
Zr649       O664   2.338       .  S
Zr650       O654   2.353       .  S
Zr650       O664   2.341       .  S
Zr651       O653   2.341       .  S
Zr651       O666   2.331       .  S
Zr652       O653   2.341       .  S
Zr652       O654   2.339       .  S
Zr652       O666   2.328       .  S
Zr652       O664   2.353       .  S
H663        O664   0.966       .  S
H665        O666   0.965       .  S
O667       Zr703   2.482       .  S
O667        C678   1.302       .  A
O668       Zr702   2.485       .  S
O668        C679   1.301       .  A
O669       Zr675   2.491       .  S
O669        C680   1.303       .  A
O670       Zr675   2.492       .  S
O670        C681   1.302       .  A
O671       Zr705   2.386       .  S
O671        C681   1.283       .  A
O672       Zr704   2.405       .  S
O672        C680   1.284       .  A
O673       Zr675   2.380       .  S
O673        C679   1.281       .  A
O674       Zr675   2.402       .  S
O674        C678   1.283       .  A
Zr675       O676   2.352       .  S
Zr675       O677   2.331       .  S
Zr675       O685   2.340       .  S
Zr675       O683   2.341       .  S
O676       Zr702   2.342       .  S
O676       Zr705   2.343       .  S
O677       Zr703   2.331       .  S
O677       Zr704   2.330       .  S
H682        O683   0.965       .  S
O683       Zr702   2.351       .  S
O683       Zr704   2.338       .  S
H684        O685   0.965       .  S
O685       Zr703   2.340       .  S
O685       Zr705   2.350       .  S
O686       Zr702   2.486       .  S
O686        C709   1.303       .  A
O687       Zr703   2.488       .  S
O687        C710   1.302       .  A
O688       Zr704   2.486       .  S
O688        C711   1.301       .  A
O689       Zr705   2.489       .  S
O689        C712   1.303       .  A
O690       Zr705   2.491       .  S
O690        C713   1.302       .  A
O691       Zr704   2.485       .  S
O691        C714   1.302       .  A
O692       Zr706   2.492       .  S
O692        C715   1.302       .  A
O693       Zr706   2.486       .  S
O693        C716   1.302       .  A
O694       Zr704   2.375       .  S
O694        C715   1.280       .  A
O695       Zr705   2.414       .  S
O695        C716   1.286       .  A
O696       Zr702   2.382       .  S
O696        C711   1.281       .  A
O697       Zr703   2.406       .  S
O697        C714   1.284       .  A
O698       Zr703   2.378       .  S
O698        C713   1.280       .  A
O699       Zr702   2.406       .  S
O699        C712   1.284       .  A
O700       Zr706   2.406       .  S
O700        C709   1.284       .  A
O701       Zr706   2.378       .  S
O701        C710   1.280       .  A
Zr702       O708   2.340       .  S
Zr702       O720   2.329       .  S
Zr703       O707   2.349       .  S
Zr703       O718   2.338       .  S
Zr704       O708   2.351       .  S
Zr704       O718   2.342       .  S
Zr705       O707   2.340       .  S
Zr705       O720   2.330       .  S
Zr706       O707   2.341       .  S
Zr706       O708   2.340       .  S
Zr706       O720   2.330       .  S
Zr706       O718   2.351       .  S
H717        O718   0.965       .  S
H719        O720   0.965       .  S
C721        C722   1.400       .  A
C721        C726   1.390   1_556  A
C721        H728   1.084       .  S
C722        C723   1.405       .  A
C723        C724   1.388   1_556  A
C723       Br730   1.922       .  S
C724        C725   1.405       .  A
C724        H729   1.083       .  S
C725        C726   1.414       .  A
C726       Br727   1.925       .  S
C731        C732   1.407       .  A
C731        C736   1.390   1_565  A
C731        H738   1.083       .  S
C732        C733   1.416       .  A
C733        C734   1.391   1_565  A
C733       Br740   1.925       .  S
C734        C735   1.399       .  A
C734        H739   1.084       .  S
C735        C736   1.403       .  A
C736       Br737   1.920       .  S
C741        C742   1.400       .  A
C741        C746   1.390   1_554  A
C741        H748   1.084       .  S
C742        C743   1.405       .  A
C743        C744   1.389   1_554  A
C743       Br750   1.922       .  S
C744        C745   1.406       .  A
C744        H749   1.083       .  S
C745        C746   1.414       .  A
C746       Br747   1.925       .  S
C751        C752   1.397       .  A
C751        C756   1.393       .  A
C751        H758   1.084       .  S
C752        C753   1.404       .  A
C753        C754   1.392       .  A
C753       Br760   1.924       .  S
C754        C755   1.411   1_455  A
C754        H759   1.083   1_455  S
C755        C756   1.423   1_655  A
C756       Br757   1.927       .  S
C761        C762   1.407   1_565  A
C761        C766   1.389       .  A
C761        H768   1.083   1_565  S
C762        C763   1.416   1_545  A
C763        C764   1.391       .  A
C763       Br770   1.925   1_565  S
C764        C765   1.400       .  A
C764        H769   1.084       .  S
C765        C766   1.403       .  A
C766       Br767   1.922       .  S
C771        C772   1.409       .  A
C771        C776   1.391   1_455  A
C771        H778   1.083       .  S
C772        C773   1.423       .  A
C773        C774   1.393   1_455  A
C773       Br780   1.926       .  S
C774        C775   1.396       .  A
C774        H779   1.084       .  S
C775        C776   1.405       .  A
C776       Br777   1.921       .  S
C781        C782   1.408       .  A
C781        C786   1.390       .  A
C781        H788   1.083       .  S
C782        C783   1.421   1_455  A
C783        C784   1.392       .  A
C783       Br790   1.928       .  S
C784        C785   1.399   1_655  A
C784        H789   1.084       .  S
C785        C786   1.404       .  A
C786       Br787   1.921       .  S
C791        C792   1.408   1_655  A
C791        C796   1.390       .  A
C791        H798   1.083       .  S
C792        C793   1.423       .  A
C793        C794   1.392       .  A
C793       Br800   1.929       .  S
C794        C795   1.398       .  A
C794        H799   1.084       .  S
C795        C796   1.404   1_455  A
C796       Br797   1.922       .  S
C801        C802   1.400   1_545  A
C801        C806   1.391       .  A
C801        H808   1.084       .  S
C802        C803   1.404       .  A
C803        C804   1.389       .  A
C803       Br810   1.921       .  S
C804        C805   1.405       .  A
C804        H809   1.083       .  S
C805        C806   1.417   1_565  A
C806       Br807   1.927       .  S
C811        C812   1.400   1_545  A
C811        C816   1.391       .  A
C811        H818   1.084       .  S
C812        C813   1.406       .  A
C813        C814   1.387       .  A
C813       Br820   1.922       .  S
C814        C815   1.404       .  A
C814        H819   1.083       .  S
C815        C816   1.415   1_565  A
C816       Br817   1.926       .  S
C821        C822   1.399   1_554  A
C821        C826   1.391       .  A
C821        H828   1.083       .  S
C822        C823   1.404       .  A
C823        C824   1.390       .  A
C823       Br830   1.922       .  S
C824        C825   1.406       .  A
C824        H829   1.083       .  S
C825        C826   1.416   1_556  A
C826       Br827   1.926       .  S
C831        C832   1.400   1_554  A
C831        C836   1.390       .  A
C831        H838   1.084       .  S
C832        C833   1.402       .  A
C833        C834   1.389       .  A
C833       Br840   1.921       .  S
C834        C835   1.406   1_556  A
C834        H839   1.083       .  S
C835        C836   1.416       .  A
C836       Br837   1.926       .  S
