geometry optimzed in LAMMPS
_audit_creation_date              2020-11-30 
_audit_creation_method            'lammps2cif' 
_symmetry_space_group_name_H-M    'P1' 
_symmetry_Int_Tables_number       1 
_symmetry_cell_setting            triclinic 
loop_ 
_symmetry_equiv_pos_as_xyz 
  x,y,z 
_cell_length_a                    38.04368343 
_cell_length_b                    38.11184638953621 
_cell_length_c                    48.3371330776976 
_cell_angle_alpha                 89.93216660760557 
_cell_angle_beta                  90.13359599886078 
_cell_angle_gamma                 120.04908793330239 
loop_ 
_atom_site_label 
_atom_site_type_symbol 
_atom_site_fract_x 
_atom_site_fract_y 
_atom_site_fract_z 
_atom_site_charge 
C1          C  0.29238577  0.49769396  0.71489441     0.78800
N2          N  0.32932491  0.00771897  0.70396916    -0.79500
C3          C  0.36382133  0.03628060  0.71603720     0.81300
N4          N  0.36234959  0.05534600  0.73885191    -0.79400
C5          C  0.32672226  0.04626641  0.75042909     0.81400
N6          N  0.29108372  0.01654815  0.73878777    -0.81200
C7          C  0.08953755  0.13216462  0.66912434     0.78800
N8          N  0.05538970  0.11618985  0.68473037    -0.79500
C9          C  0.01990827  0.08561061  0.67504243     0.81300
N10         N  0.01783496  0.07052234  0.64959864    -0.79400
C11         C  0.05109035  0.08512382  0.63357794     0.81400
N12         N  0.08739284  0.11658436  0.64311864    -0.81200
C13         C  0.27469851  0.47010312  0.83258941     0.78800
N14         N  0.29445352  0.45458280  0.84701275    -0.79500
C15         C  0.29711052  0.42286271  0.83708079     0.81300
N16         N  0.28113139  0.40709855  0.81229077    -0.79400
C17         C  0.26118344  0.42127265  0.79731810     0.81400
N18         N  0.25791350  0.45341430  0.80725330    -0.81200
C19         C  0.43935627  0.33743404  0.87793784     0.78800
N20         N  0.45506567  0.35414914  0.90340007    -0.79500
C21         C  0.44887075  0.38429886  0.91368742     0.81300
N22         N  0.42697257  0.39645432  0.89902578    -0.79400
C23         C  0.41182663  0.38049867  0.87412344     0.81400
N24         N  0.41751615  0.35083717  0.86371788    -0.81200
C25         C  0.44401525  0.30552746  0.49868420     0.78800
N26         N  0.46658789  0.29217808  0.51200035    -0.79500
C27         C  0.47114632  0.26203618  0.50124667     0.81300
N28         N  0.45404880  0.24551357  0.47683145    -0.79400
C29         C  0.43150934  0.25784271  0.46294192     0.81400
N30         N  0.42645272  0.28845603  0.47366196    -0.81200
C31         C  0.10660138  0.17091125  0.54428916     0.78800
N32         N  0.12080798  0.18658644  0.57015494    -0.79500
C33         C  0.11622568  0.21796648  0.57983897     0.81300
N34         N  0.09768296  0.23284055  0.56400721    -0.79400
C35         C  0.08391694  0.21783191  0.53865525     0.81400
N36         N  0.08767464  0.18656422  0.52899880    -0.81200
C37         C  0.42192381  0.30226058  0.00057262     0.78800
N38         N  0.38690488  0.28794484  0.01510574    -0.79500
C39         C  0.35167418  0.25745744  0.00500762     0.81300
N40         N  0.35055733  0.24128211  0.98018203    -0.79400
C41         C  0.38442020  0.25472822  0.96504015     0.81400
N42         N  0.42066163  0.28580907  0.97500007    -0.81200
C43         C  0.12457923  0.16759279  0.04704194     0.78800
N44         N  0.12393517  0.18540167  0.07172366    -0.79500
C45         C  0.15967995  0.21658158  0.08230315     0.81300
N46         N  0.19464138  0.22846589  0.06874276    -0.79400
C47         C  0.19522205  0.21084137  0.04493319     0.81400
N48         N  0.16061166  0.18056966  0.03414376    -0.81200
C49         C  0.45806870  0.33439334  0.38012079     0.78800
N50         N  0.49460059  0.34591146  0.36831987    -0.79500
C51         C  0.02971798  0.37346768  0.38111247     0.81300
N52         N  0.02855572  0.39122529  0.40467897    -0.79400
C53         C  0.49261570  0.38071582  0.41673846     0.81400
N54         N  0.45687503  0.35170619  0.40484690    -0.81200
C55         C  0.25629902  0.47109886  0.33292801     0.78800
N56         N  0.25560574  0.45399426  0.30773021    -0.79500
C57         C  0.21912522  0.42450540  0.29697751     0.81300
N58         N  0.18461448  0.41388934  0.31061927    -0.79400
C59         C  0.18513864  0.43097534  0.33491008     0.81400
N60         N  0.22067354  0.45894028  0.34628975    -0.81200
C61         C  0.11303572  0.14135267  0.16305608     0.78800
N62         N  0.13844094  0.13033365  0.17482576    -0.79500
C63         C  0.14618205  0.10339224  0.16227188     0.81300
N64         N  0.12760789  0.08586568  0.13854945    -0.79400
C65         C  0.10145601  0.09506713  0.12652594     0.81400
N66         N  0.09430752  0.12374547  0.13838897    -0.81200
C67         C  0.27366927  0.50460324  0.21159694     0.78800
N68         N  0.25072911  0.01750167  0.19768506    -0.79500
C69         C  0.24388120  0.04615374  0.20847211     0.81300
N70         N  0.25959367  0.06285729  0.23306710    -0.79400
C71         C  0.28205202  0.05123471  0.24755898     0.81400
N72         N  0.28849396  0.02120952  0.23729983    -0.81200
C73         C  0.03642182  0.25525039  0.83122522     0.78800
N74         N  0.04913046  0.29138770  0.84389719    -0.79500
C75         C  0.07839552  0.32599148  0.83248497     0.81300
N76         N  0.09530241  0.32524407  0.80840777    -0.79400
C77         C  0.08370930  0.29007240  0.79525311     0.81400
N78         N  0.05353344  0.25442089  0.80636177    -0.81200
C79         C  0.17217434  0.05214195  0.87801111     0.78800
N80         N  0.15601525  0.05052091  0.90375386    -0.79500
C81         C  0.12578749  0.01397786  0.91390121     0.81300
N82         N  0.11260483  0.48052168  0.89834274    -0.79400
C83         C  0.12842418  0.48232983  0.87323069     0.81400
N84         N  0.15825811  0.01731038  0.86339548    -0.81200
C85         C  0.37364400  0.40223002  0.66797425     0.78800
N86         N  0.38984723  0.41685829  0.64224261    -0.79500
C87         C  0.42150296  0.41243151  0.63266497     0.81300
N88         N  0.43587126  0.39333339  0.64848723    -0.79400
C89         C  0.42016959  0.37910497  0.67366049     0.81400
N90         N  0.38891809  0.38296884  0.68316007    -0.81200
C91         C  0.00733415  0.23994538  0.71337519     0.78800
N92         N  0.49307505  0.26057382  0.69942398    -0.79500
C93         C  0.46235071  0.26452833  0.70978142     0.81300
N94         N  0.44619436  0.24828775  0.73438616    -0.79400
C95         C  0.45948088  0.22711616  0.74886458     0.81400
N96         N  0.49060363  0.22250277  0.73854121    -0.81200
C97         C  0.20238185  0.08907294  0.49725092     0.78800
N98         N  0.22060312  0.08784035  0.47293850    -0.79500
C99         C  0.25049872  0.12352123  0.46155769     0.81300
N100        N  0.26062000  0.15888636  0.47383900    -0.79400
C101        C  0.24249322  0.16007139  0.49717174     0.81400
N102        N  0.21363775  0.12555779  0.50896296    -0.81200
C103        C  0.33728153  0.38551843  0.54485588     0.78800
N104        N  0.32233331  0.35118700  0.52953337    -0.79500
C105        C  0.29180986  0.31572463  0.53917836     0.81300
N106        N  0.27621369  0.31360458  0.56440647    -0.79400
C107        C  0.29015886  0.34681959  0.58030051     0.81400
N108        N  0.32126400  0.38332570  0.57073908    -0.81200
C109        C  0.20865347  0.07281065  0.00091568     0.78800
N110        N  0.22489505  0.08698229  0.97516946    -0.79500
C111        C  0.25709178  0.08310194  0.96614581     0.81300
N112        N  0.27207884  0.06516397  0.98249993    -0.79400
C113        C  0.25643737  0.05141143  0.00773891     0.81400
N114        N  0.22456404  0.05467365  0.01670196    -0.81200
C115        C  0.34123562  0.40793230  0.04631237     0.78800
N116        N  0.32793431  0.43069078  0.03324656    -0.79500
C117        C  0.29755496  0.43492294  0.04402058     0.81300
N118        N  0.28078050  0.41730583  0.06821441    -0.79400
C119        C  0.29297002  0.39454562  0.08184740     0.81400
N120        N  0.32385208  0.38983258  0.07113318    -0.81200
C121        C  0.17480176  0.07367519  0.38029708     0.78800
N122        N  0.15773508  0.05628634  0.40538966    -0.79500
C123        C  0.12777647  0.06232204  0.41643959     0.81300
N124        N  0.11663630  0.08612657  0.40304464    -0.79400
C125        C  0.13323893  0.10295500  0.37868207     0.81400
N126        N  0.16187186  0.09667946  0.36722098    -0.81200
C127        C  0.04037357  0.23735118  0.33350872     0.78800
N128        N  0.05270882  0.21456832  0.34755319    -0.79500
C129        C  0.08073516  0.20679467  0.33673730     0.81300
N130        N  0.09735688  0.22189392  0.31198490    -0.79400
C131        C  0.08664874  0.24532168  0.29764043     0.81400
N132        N  0.05729783  0.25275307  0.30807012    -0.81200
C133        C  0.00475549  0.22134120  0.21102036     0.78800
N134        N  0.48803226  0.21905887  0.23681310    -0.79500
C135        C  0.45713620  0.18278876  0.24670860     0.81300
N136        N  0.44406037  0.14889882  0.23165223    -0.79400
C137        C  0.46041351  0.15005679  0.20689221     0.81400
N138        N  0.49065942  0.18537137  0.19683830    -0.81200
C139        C  0.37280343  0.42389939  0.16607888     0.78800
N140        N  0.39081067  0.42299005  0.14159790    -0.79500
C141        C  0.42269924  0.45828803  0.13125838     0.81300
N142        N  0.43534889  0.49331860  0.14492138    -0.79400
C143        C  0.41748821  0.49443236  0.16851369     0.81400
N144        N  0.38622124  0.46007814  0.17898480    -0.81200
C145        C  0.26959608  0.25298693  0.33550509     0.78800
N146        N  0.28852199  0.28752458  0.35079425    -0.79500
C147        C  0.29220750  0.32258077  0.34117879     0.81300
N148        N  0.27835369  0.32393913  0.31584836    -0.79400
C149        C  0.25978661  0.29063540  0.29995789     0.81400
N150        N  0.25529223  0.25459965  0.30963003    -0.81200
C151        C  0.43309717  0.05077021  0.38056179     0.78800
N152        N  0.40957125  0.01475094  0.36762826    -0.79500
C153        C  0.40568654  0.48034061  0.37793613     0.81300
N154        N  0.42330511  0.48078929  0.40211623    -0.79400
C155        C  0.44583541  0.01547949  0.41623579     0.81400
N156        N  0.45119852  0.05126422  0.40539343    -0.81200
C157        C  0.26793252  0.21624050  0.71312443     0.78800
N158        N  0.24429323  0.17991239  0.70061130    -0.79500
C159        C  0.23979233  0.14555125  0.71193516     0.81300
N160        N  0.25839713  0.14675747  0.73571157    -0.79400
C161        C  0.28193004  0.18201579  0.74876502     0.81400
N162        N  0.28668718  0.21742301  0.73776197    -0.81200
C163        C  0.10465521  0.41870296  0.66704964     0.78800
N164        N  0.12539349  0.45319087  0.68206018    -0.79500
C165        C  0.13246895  0.48908076  0.67184761     0.81300
N166        N  0.11868664  0.49129826  0.64670034    -0.79400
C167        C  0.09719307  0.45775006  0.63138748     0.81400
N168        N  0.09046760  0.42092427  0.64125410    -0.81200
C169        C  0.42123223  0.06715550  0.49863861     0.78800
N170        N  0.42262412  0.08467807  0.47339269    -0.79500
C171        C  0.38743535  0.08058748  0.46226403     0.81300
N172        N  0.35234587  0.05915291  0.47580674    -0.79400
C173        C  0.35066870  0.04194992  0.50022597     0.81400
N174        N  0.38487357  0.04570821  0.51167378    -0.81200
C175        C  0.12399227  0.40381134  0.54496045     0.78800
N176        N  0.15965705  0.42567489  0.53117220    -0.79500
C177        C  0.19473470  0.43032762  0.54171800     0.81300
N178        N  0.19466052  0.41358861  0.56613100    -0.79400
C179        C  0.16033645  0.39207390  0.58051838     0.81400
N180        N  0.12436959  0.38722792  0.57022155    -0.81200
C181        C  0.28963777  0.23454971  0.21027345     0.78800
N182        N  0.29149517  0.22029712  0.23607118    -0.79500
C183        C  0.32753119  0.22423299  0.24539095     0.81300
N184        N  0.36077840  0.24261575  0.22936706    -0.79400
C185        C  0.35918299  0.25691088  0.20427111     0.81400
N186        N  0.32402676  0.25331125  0.19489928    -0.81200
C187        C  0.08771732  0.40034969  0.16607751     0.78800
N188        N  0.05160567  0.37751507  0.17906326    -0.79500
C189        C  0.01678466  0.37197863  0.16763572     0.81300
N190        N  0.01740017  0.38921721  0.14333841    -0.79400
C191        C  0.05249692  0.41249865  0.12994282     0.81400
N192        N  0.08826167  0.41785598  0.14099984    -0.81200
C193        C  0.43919284  0.08696305  0.00062515     0.78800
N194        N  0.46103783  0.12184310  0.01509246    -0.79500
C195        C  0.46814076  0.15761753  0.00457524     0.81300
N196        N  0.45313385  0.15924352  0.97976057    -0.79400
C197        C  0.43077868  0.12533963  0.96495507     0.81400
N198        N  0.42413259  0.08868786  0.97506205    -0.81200
C199        C  0.10266039  0.38486853  0.04662384     0.78800
N200        N  0.08120290  0.34916262  0.03301840    -0.79500
C201        C  0.07567359  0.31441978  0.04431130     0.81300
N202        N  0.09184825  0.31476096  0.06902012    -0.79400
C203        C  0.11396940  0.34961753  0.08294965     0.81400
N204        N  0.11911392  0.38525120  0.07208171    -0.81200
C205        C  0.25448441  0.23388511  0.83283859     0.78800
N206        N  0.25350222  0.24848932  0.80697908    -0.79500
C207        C  0.21778601  0.24475318  0.79722601     0.81300
N208        N  0.18419727  0.22633963  0.81288078    -0.79400
C209        C  0.18503721  0.21217516  0.83816819     0.81400
N210        N  0.21984707  0.21547053  0.84796667    -0.81200
C211        C  0.45773399  0.07032167  0.87745782     0.78800
N212        N  0.45868418  0.05444833  0.90283596    -0.79500
C213        C  0.49471621  0.05909090  0.91272416     0.81300
N214        N  0.02845925  0.07955136  0.89756433    -0.79400
C215        C  0.02778238  0.09517398  0.87280440     0.81400
N216        N  0.49291960  0.09131473  0.86304266    -0.81200
O217        O  0.36552689  0.08899129  0.78726801    -0.87900
O218        O  0.23238584  0.11623827  0.88545646    -0.88100
O219        O  0.27221221  0.03125951  0.82601546    -0.89700
O220        O  0.28343828  0.14327020  0.78638443    -0.88500
O221        O  0.33209130  0.21078940  0.78353250    -0.88100
O222        O  0.30107777  0.02356512  0.86568731    -0.89400
O223        O  0.22448909  0.08183811  0.84477590    -0.87900
O224        O  0.29806729  0.07023094  0.78385454    -0.87500
Zr225      Zr  0.29172527  0.10332253  0.82425347     2.84300
O226        O  0.30669159  0.16682742  0.84006866    -1.09500
O227        O  0.34237072  0.09011840  0.84049736    -1.10200
C228        C  0.32969936  0.06938968  0.77564411     1.05200
C229        C  0.21118909  0.08705643  0.86831685     1.05200
C230        C  0.28153669  0.01030737  0.84240689     1.08100
C231        C  0.30015384  0.17906371  0.77482127     1.05900
H232        H  0.26930193  0.07924264  0.88020160     0.31500
O233        O  0.29336327  0.10209680  0.87282031    -1.30400
H234        H  0.35612011  0.15316347  0.78849200     0.31200
O235        O  0.35602947  0.15325750  0.80846882    -1.32100
O236        O  0.34353450  0.21363504  0.92757854    -0.87900
O237        O  0.47768827  0.19022526  0.82595720    -0.89400
O238        O  0.29699103  0.08154239  0.92843029    -0.88000
O239        O  0.31855906  0.23746359  0.82610484    -0.88000
O240        O  0.41977970  0.22713906  0.78656575    -0.87700
O241        O  0.39385733  0.06690821  0.88531572    -0.87500
O242        O  0.42987940  0.16641720  0.92782676    -0.87900
O243        O  0.44347456  0.27740390  0.88547216    -0.87400
O244        O  0.38375608  0.09792483  0.92871247    -0.88400
O245        O  0.41624319  0.28487978  0.84489435    -0.87600
O246        O  0.27484369  0.12781078  0.92892949    -0.88000
O247        O  0.42822503  0.09386383  0.84469560    -0.87700
O248        O  0.43778925  0.17788307  0.78403416    -0.87400
O249        O  0.28216736  0.20870323  0.86574970    -0.87800
O250        O  0.41213567  0.23629215  0.92852586    -0.88100
O251        O  0.48542521  0.22747254  0.86518702    -0.89400
Zr252      Zr  0.30549328  0.16610351  0.88836805     2.83100
Zr253      Zr  0.40559295  0.13863067  0.82447553     2.83500
Zr254      Zr  0.34352332  0.08962601  0.88876931     2.84100
Zr255      Zr  0.37085565  0.21766098  0.82426096     2.83400
Zr256      Zr  0.42003669  0.20432600  0.88864046     2.84200
O257        O  0.41917401  0.20265530  0.84037690    -1.10000
O258        O  0.35636098  0.15337168  0.90392710    -1.09500
C259        C  0.37997865  0.23423351  0.93838758     1.05200
C260        C  0.49836774  0.22096631  0.84196172     1.07800
C261        C  0.27694852  0.09795830  0.93915979     1.05400
C262        C  0.28831239  0.22804188  0.84249899     1.05700
C263        C  0.43855522  0.20998328  0.77519287     1.05300
C264        C  0.42303359  0.07508177  0.86810115     1.04900
C265        C  0.41409332  0.13000593  0.93855306     1.05300
C266        C  0.43513903  0.29838467  0.86834182     1.04800
H267        H  0.43034693  0.14062323  0.88018805     0.31500
O268        O  0.40730983  0.14169264  0.87295829    -1.31100
H269        H  0.36919307  0.24027573  0.88003093     0.31500
O270        O  0.36809145  0.21625329  0.87275218    -1.32500
O271        O  0.44954291  0.42575105  0.95087640    -0.87900
O272        O  0.10810539  0.44963134  0.05222108    -0.88100
O273        O  0.08356572  0.47321541  0.95077867    -0.89700
O274        O  0.48580156  0.36282775  0.99290370    -0.88500
O275        O  0.45115733  0.35533137  0.03341968    -0.88100
O276        O  0.10578148  0.04147990  0.94976839    -0.89400
O277        O  0.07778207  0.41207813  0.01319460    -0.87900
O278        O  0.49646288  0.40441398  0.94955106    -0.87500
Zr279      Zr  0.03567168  0.43554850  0.98988844     2.84300
O280        O  0.03659025  0.43705333  0.03816211    -1.09500
O281        O  0.02292604  0.48643569  0.97452051    -1.10200
C282        C  0.46567578  0.40555984  0.94000174     1.05200
C283        C  0.09776944  0.41881605  0.03626936     1.05200
C284        C  0.10407551  0.50960161  0.94001323     1.08100
C285        C  0.45650202  0.34178808  0.01001034     1.05900
H286        H  0.11031259  0.49950253  0.99818694     0.31500
O287        O  0.08613916  0.49817495  0.00544778    -1.30400
H288        H  0.44885060  0.39986291  0.99829051     0.31200
O289        O  0.47184081  0.42392790  0.00552259    -1.32100
O290        O  0.09789768  0.05225734  0.09003729    -0.87900
O291        O  0.43539947  0.02311248  0.99264311    -0.89400
O292        O  0.14698279  0.07416515  0.99239273    -0.88000
O293        O  0.51342981  0.41467437  0.09199265    -0.88000
O294        O  0.40120267  0.40321457  0.05250100    -0.87700
O295        O  0.03535304  0.05905833  0.95012378    -0.87500
O296        O  0.05920166  0.10825113  0.05244741    -0.87900
O297        O  0.46101737  0.99649207  0.09285201    -0.87400
O298        O  0.09700765  0.11527993  0.01365761    -0.88400
O299        O  0.44253406  0.42969174  0.09536294    -0.87600
O300        O  0.15454068  0.04686878  0.03283473    -0.88000
O301        O  0.46685022  0.01268374  0.94922491    -0.87700
O302        O  0.39316595  0.43153359  0.01271273    -0.87400
O303        O  0.08075155  0.46195686  0.09459649    -0.87800
O304        O  0.04881436  0.07044428  0.09332616    -0.88100
O305        O  0.46135022  0.05663212  0.03371728    -0.89400
Zr306      Zr  0.08758721  0.50109481  0.05392163     2.83100
Zr307      Zr  0.45908482  0.47375614  0.98971043     2.83500
Zr308      Zr  0.07355505  0.05013485  0.98940712     2.84100
Zr309      Zr  0.47330826  0.42264276  0.05403728     2.83400
Zr310      Zr  0.00791068  0.03606280  0.05387065     2.84200
O311        O  0.45941871  0.47291099  0.03803734    -1.10000
O312        O  0.07183656  0.04948024  0.03758859    -1.09500
C313        C  0.08160189  0.07183831  0.10139718     1.05200
C314        C  0.44310659  0.05186728  0.01006380     1.07800
C315        C  0.16821421  0.06623351  0.00961751     1.05400
C316        C  0.04909932  0.43016145  0.10358947     1.05700
C317        C  0.38024792  0.41262450  0.03615669     1.05300
C318        C  0.99892708  0.04288501  0.93927456     1.04900
C319        C  0.09031369  0.12863384  0.03669263     1.05300
C320        C  0.44309259  0.46148616  0.10466820     1.04800
H321        H  0.00934734  0.06033897  0.99800666     0.31500
O322        O  0.01078592  0.03755097  0.00526244    -1.31100
H323        H  0.02390141  0.48675864  0.08987172     0.31500
O324        O  0.02335767  0.48645786  0.06990262    -1.32500
O325        O  0.43034379  0.21744308  0.42533754    -0.87900
O326        O  0.26808931  0.19009077  0.32716185    -0.88100
O327        O  0.39284398  0.27551272  0.38534629    -0.89700
O328        O  0.29250409  0.16277152  0.42474400    -0.88500
O329        O  0.27382169  0.09538109  0.42760883    -0.88100
O330        O  0.42951121  0.28381789  0.34570962    -0.89400
O331        O  0.29502450  0.22448934  0.36782205    -0.87900
O332        O  0.38161876  0.23621977  0.42777701    -0.87500
Zr333      Zr  0.34146727  0.20333789  0.38746939     2.84300
O334        O  0.29329661  0.13980558  0.37156445    -1.09500
O335        O  0.40561378  0.21736373  0.37141653    -1.10200
C336        C  0.41361641  0.23660432  0.43670044     1.05200
C337        C  0.27578135  0.21897780  0.34452283     1.05200
C338        C  0.42334518  0.29643355  0.36919109     1.08100
C339        C  0.27304101  0.12684134  0.43609934     1.05900
H340        H  0.34216497  0.22761639  0.33165966     0.31500
O341        O  0.34386027  0.20494874  0.33893314    -1.30400
H342        H  0.35660393  0.15389026  0.42323786     0.31200
O343        O  0.35649176  0.15391367  0.40325569    -1.32100
O344        O  0.28267109  0.09279158  0.28460540    -0.87900
O345        O  0.44010508  0.11645707  0.38593954    -0.89400
O346        O  0.36876623  0.22629606  0.28341479    -0.88000
O347        O  0.23451638  0.06820919  0.38586969    -0.88000
O348        O  0.34815288  0.08128511  0.42462975    -0.87700
O349        O  0.48010284  0.24184350  0.32612769    -0.87500
O350        O  0.41651370  0.14193614  0.28407843    -0.87900
O351        O  0.32007794  0.03055675  0.32589324    -0.87400
O352        O  0.43864875  0.21031261  0.28321833    -0.88400
O353        O  0.28575220  0.02235187  0.36663430    -0.87600
O354        O  0.30035447  0.17949360  0.28268344    -0.88000
O355        O  0.48796903  0.21523890  0.36681691    -0.87700
O356        O  0.41570456  0.13018478  0.42730116    -0.87400
O357        O  0.22653236  0.09760054  0.34659522    -0.87800
O358        O  0.32988214  0.07182993  0.28317845    -0.88100
O359        O  0.41107433  0.07975920  0.34641999    -0.89400
Zr360      Zr  0.29210139  0.14081419  0.32337341     2.83100
Zr361      Zr  0.42099767  0.16924060  0.38724933     2.83500
Zr362      Zr  0.40675307  0.21797500  0.32314111     2.84100
Zr363      Zr  0.30702392  0.08935123  0.38736633     2.83400
Zr364      Zr  0.36933100  0.10368711  0.32316629     2.84200
O365        O  0.37047827  0.10520653  0.37131453    -1.10000
O366        O  0.35591775  0.15415654  0.30793603    -1.09500
C367        C  0.29893363  0.07272045  0.27373234     1.05200
C368        C  0.42983960  0.08566190  0.36993460     1.07800
C369        C  0.33233015  0.20953228  0.27252225     1.05400
C370        C  0.21359683  0.07805928  0.36984472     1.05700
C371        C  0.38422305  0.09812370  0.43600305     1.05300
C372        C  0.50125089  0.23370975  0.34327002     1.04900
C373        C  0.43676783  0.17830560  0.27332019     1.05300
C374        C  0.29092065  0.00926637  0.34299789     1.04800
H375        H  0.44353195  0.16769585  0.33147897     0.31500
O376        O  0.41941942  0.16641652  0.33876874    -1.31100
H377        H  0.28226260  0.06683681  0.33171633     0.31500
O378        O  0.30521620  0.09105902  0.33892995    -1.32500
O379        O  0.22599641  0.43984161  0.71933663    -0.87900
O380        O  0.24906913  0.30531541  0.61771338    -0.88100
O381        O  0.31257568  0.40455348  0.65993886    -0.89700
O382        O  0.20078986  0.39108421  0.61794234    -0.88500
O383        O  0.13241171  0.34432721  0.61625942    -0.88100
O384        O  0.32021081  0.37777721  0.70064189    -0.89400
O385        O  0.27124251  0.37372251  0.61690682    -0.87900
O386        O  0.26401558  0.44684333  0.68069042    -0.87500
Zr387      Zr  0.23944710  0.38150785  0.65682366     2.84300
O388        O  0.18859223  0.31788887  0.64131452    -1.09500
O389        O  0.23786751  0.38094391  0.70502554    -1.10200
C390        C  0.25744233  0.45999484  0.70380988     1.05200
C391        C  0.26953258  0.34179925  0.60700389     1.05200
C392        C  0.33375733  0.39662859  0.67719369     1.08100
C393        C  0.16445553  0.37506892  0.60686613     1.05900
H394        H  0.27528122  0.33073945  0.66561457     0.31500
O395        O  0.25116856  0.32961165  0.67282750    -1.30400
H396        H  0.17563027  0.39227768  0.66491974     0.31200
O397        O  0.17677419  0.36932559  0.67215807    -1.32100
O398        O  0.15231277  0.19378126  0.66075350    -0.87900
O399        O  0.12466111  0.32888416  0.75795572    -0.89400
O400        O  0.27283311  0.28072675  0.71919539    -0.88000
O401        O  0.11553340  0.25803009  0.61739458    -0.88000
O402        O  0.10153280  0.35500389  0.65907692    -0.87700
O403        O  0.26104944  0.38084480  0.75971308    -0.87500
O404        O  0.17741193  0.24432614  0.75951254    -0.87900
O405        O  0.06669306  0.23422127  0.71927689    -0.87400
O406        O  0.24530890  0.29249080  0.76131897    -0.88400
O407        O  0.05927364  0.26377651  0.67990552    -0.87600
O408        O  0.24424471  0.24421853  0.67947759    -0.88000
O409        O  0.21286221  0.40047861  0.76124228    -0.87700
O410        O  0.12790758  0.38907597  0.69990566    -0.87400
O411        O  0.16140951  0.23535891  0.61690243    -0.87800
O412        O  0.11719454  0.18648232  0.70098828    -0.88100
O413        O  0.10596837  0.26150144  0.76106008    -0.89400
Zr414      Zr  0.20125373  0.26707223  0.65691093     2.83100
Zr415      Zr  0.17384323  0.36789156  0.72060447     2.83500
Zr416      Zr  0.25279813  0.33274616  0.72132859     2.84100
Zr417      Zr  0.12486169  0.30521289  0.65652409     2.83400
Zr418      Zr  0.13870185  0.25379131  0.72108350     2.84200
O419        O  0.12563034  0.30443392  0.70473996    -1.10000
O420        O  0.20214114  0.26874944  0.70524719    -1.09500
C421        C  0.12319990  0.17263750  0.67796284     1.05200
C422        C  0.10539044  0.29312407  0.76946673     1.07800
C423        C  0.26336244  0.25042978  0.70285789     1.05400
C424        C  0.13152685  0.23763259  0.60675837     1.05700
C425        C  0.10924664  0.38391097  0.67636938     1.05300
C426        C  0.24432049  0.40036752  0.77072763     1.04900
C427        C  0.21364624  0.26105009  0.77059178     1.05300
C428        C  0.04617269  0.24447039  0.70318176     1.04800
H429        H  0.18816049  0.31822890  0.75677140     0.31500
O430        O  0.18833301  0.31821065  0.73679370    -1.31100
H431        H  0.11439596  0.23054391  0.66523530     0.31500
O432        O  0.13713570  0.25485618  0.67247126    -1.32500
O433        O  0.19946559  0.25771598  0.11973392    -0.87900
O434        O  0.06598311  0.28455214  0.21907018    -0.88100
O435        O  0.10495824  0.19933771  0.15867065    -0.89700
O436        O  0.11532221  0.31042413  0.12037068    -0.88500
O437        O  0.16391659  0.37797508  0.11794678    -0.88100
O438        O  0.13516994  0.19162402  0.19762875    -0.89400
O439        O  0.05822558  0.24980539  0.17859035    -0.87900
O440        O  0.13178263  0.23866120  0.11729314    -0.87500
Zr441      Zr  0.12530766  0.27128378  0.15781891     2.84300
O442        O  0.14050314  0.33461239  0.17381082    -1.09500
O443        O  0.17621275  0.25808167  0.17358290    -1.10200
C444        C  0.16335612  0.23832996  0.10838060     1.05200
C445        C  0.04468250  0.25548351  0.20186922     1.05200
C446        C  0.11576587  0.17887405  0.17428556     1.08100
C447        C  0.13187655  0.34636568  0.10912594     1.05900
H448        H  0.10253875  0.24665439  0.21344045     0.31500
O449        O  0.12679797  0.26946850  0.20627652    -1.30400
H450        H  0.18959360  0.32079202  0.12207766     0.31200
O451        O  0.18981989  0.32077372  0.14204928    -1.32100
O452        O  0.17839918  0.38203351  0.26034530    -0.87900
O453        O  0.31208583  0.35956224  0.15945188    -0.89400
O454        O  0.12841206  0.24625257  0.26046731    -0.88000
O455        O  0.15250263  0.40517091  0.16003844    -0.88000
O456        O  0.25260579  0.39344941  0.11955138    -0.87700
O457        O  0.22675586  0.23327607  0.21867434    -0.87500
O458        O  0.26154584  0.33179420  0.26187479    -0.87900
O459        O  0.27724033  0.44418716  0.21922515    -0.87400
O460        O  0.21472326  0.26348957  0.26265112    -0.88400
O461        O  0.25038488  0.45203654  0.17857285    -0.87600
O462        O  0.10810302  0.29387967  0.26231698    -0.88000
O463        O  0.26137593  0.26044723  0.17814408    -0.87700
O464        O  0.27186224  0.34510309  0.11705894    -0.87400
O465        O  0.11592092  0.37628433  0.19960956    -0.87800
O466        O  0.24671572  0.40333713  0.26198997    -0.88100
O467        O  0.32044231  0.39516388  0.19959002    -0.89400
Zr468      Zr  0.13935098  0.33348319  0.22207729     2.83100
Zr469      Zr  0.23983441  0.30624541  0.15769749     2.83500
Zr470      Zr  0.17693933  0.25666686  0.22178706     2.84100
Zr471      Zr  0.20464260  0.38502623  0.15784151     2.83400
Zr472      Zr  0.25412741  0.37105538  0.22222242     2.84200
O473        O  0.25322069  0.37005523  0.17388215    -1.10000
O474        O  0.19014441  0.32033993  0.23738033    -1.09500
C475        C  0.21479461  0.40245948  0.27119268     1.05200
C476        C  0.33328724  0.38962046  0.17599061     1.07800
C477        C  0.10856105  0.26260336  0.27154321     1.05400
C478        C  0.12207679  0.39559717  0.17631749     1.05700
C479        C  0.27184957  0.37678635  0.10810150     1.05300
C480        C  0.25573936  0.24104418  0.20138216     1.04900
C481        C  0.24487709  0.29538181  0.27279970     1.05300
C482        C  0.26917779  0.46537483  0.20208002     1.04800
H483        H  0.26409357  0.30712336  0.21367015     0.31500
O484        O  0.24129535  0.30848090  0.20630752    -1.31100
H485        H  0.20339267  0.40721789  0.21351208     0.31500
O486        O  0.20216341  0.38308071  0.20630630    -1.32500
O487        O  0.50974801  0.04602324  0.59551878    -0.87900
O488        O  0.14395884  0.02314792  0.49249195    -0.88100
O489        O  0.09691035  0.99879203  0.59409171    -0.89700
O490        O  0.10904082  0.11003726  0.55237527    -0.88500
O491        O  0.08222129  0.11769632  0.51167879    -0.88100
O492        O  0.04990069  0.43105855  0.59533592    -0.89400
O493        O  0.15152803  0.06079315  0.53148671    -0.87900
O494        O  0.07823641  0.06765772  0.59617486    -0.87500
Zr495      Zr  0.08622817  0.03705081  0.55550054     2.84300
O496        O  0.08516488  0.03551220  0.50723323    -1.09500
O497        O  0.02241697  0.48649712  0.57099905    -1.10200
C498        C  0.04621951  0.06554246  0.60642537     1.05200
C499        C  0.16446217  0.05428119  0.50822857     1.05200
C500        C  0.08073396  0.46284603  0.60500353     1.08100
C501        C  0.10105948  0.13116159  0.53511565     1.05900
H502        H  0.09639444  0.47377329  0.54690932     0.31500
O503        O  0.07334174  0.47483727  0.53967498    -1.30400
H504        H  0.03530294  0.07291989  0.54731881     0.31200
O505        O  0.03403725  0.04885177  0.53993460    -1.32100
O506        O  0.03219034  0.42302697  0.45385698    -0.87900
O507        O  0.39822181  0.44914020  0.55284754    -0.89400
O508        O  0.05961993  0.39981416  0.55211871    -0.88000
O509        O  0.08609704  0.06034337  0.45364524    -0.88000
O510        O  0.48583458  0.07163765  0.49325861    -0.87700
O511        O  0.46211497  0.41237357  0.59487366    -0.87500
O512        O  0.43805988  0.36476613  0.49287927    -0.87900
O513        O  0.44780573  0.47598802  0.45334503    -0.87400
O514        O  0.46734021  0.35710694  0.53236261    -0.88400
O515        O  0.49648144  0.04345944  0.45104661    -0.87600
O516        O  0.09468768  0.42741785  0.51180956    -0.88000
O517        O  0.44021651  0.45880539  0.59600841    -0.87700
O518        O  0.44802870  0.04136788  0.53220449    -0.87400
O519        O  0.10485400  0.01166213  0.45101575    -0.87800
O520        O  0.46434126  0.40401618  0.45073219    -0.88100
O521        O  0.39036652  0.41496626  0.51205207    -0.89400
Zr522      Zr  0.07173000  0.97160577  0.49116937     2.83100
Zr523      Zr  0.47145968  0.49909019  0.55581484     2.83500
Zr524      Zr  0.00951754  0.42291342  0.55554220     2.84100
Zr525      Zr  0.03673207  0.05051780  0.49129709     2.83400
Zr526      Zr  0.45756089  0.43674687  0.49118279     2.84200
O527        O  0.47287958  0.50010580  0.50742517    -1.10000
O528        O  0.00843204  0.42381086  0.50722262    -1.09500
C529        C  0.99630262  0.40383108  0.44234456     1.05200
C530        C  0.37694738  0.42013134  0.53557490     1.07800
C531        C  0.08919858  0.40835342  0.53517429     1.05400
C532        C  0.10559499  0.04385113  0.44233007     1.05700
C533        C  0.45492612  0.06149397  0.50915249     1.05300
C534        C  0.44190050  0.42842520  0.60582584     1.04900
C535        C  0.44817960  0.34415944  0.50899199     1.05300
C536        C  0.46459830  0.51194450  0.44198162     1.04800
H537        H  0.43537247  0.41242957  0.54706247     0.31500
O538        O  0.45942640  0.43533308  0.53977153    -1.31100
H539        H  0.02179552  0.98636036  0.45531887     0.31500
O540        O  0.02202440  0.48673990  0.47528760    -1.32500
C541        C  0.06668066  0.12328952  0.86050327    -0.07500
C542        C  0.07513302  0.16303936  0.85579143    -0.18700
C543        C  0.11480661  0.19400921  0.85127334     0.09700
C544        C  0.14633315  0.18476297  0.85088775    -0.07500
C545        C  0.13790263  0.14509786  0.85575281    -0.18700
C546        C  0.09829537  0.11414007  0.86012944     0.09700
S547        S  0.12366320  0.24481687  0.84669792    -0.33700
S548        S  0.08978900  0.06341208  0.86438264    -0.33700
H549        H  0.04911352  0.04315690  0.85549432     0.27700
H550        H  0.16402114  0.26460543  0.85630011     0.27700
H551        H  0.05111402  0.17041519  0.85715974     0.18300
H552        H  0.16189225  0.13766905  0.85438035     0.18300
C553        C  0.04797195  0.27564286  0.03223597    -0.07500
C554        C  0.06442472  0.25330786  0.02092574    -0.18700
C555        C  0.03927601  0.21322308  0.01304610     0.09700
C556        C  0.49648497  0.19546372  0.01753219    -0.07500
C557        C  0.98067249  0.21761719  0.02857932    -0.18700
C558        C  0.00579397  0.25764788  0.03646403     0.09700
S559        S  0.06260589  0.18777028  0.99623561    -0.33700
S560        S  0.98249966  0.28288508  0.05359420    -0.33700
H561        H  0.00748755  0.32118452  0.04193164     0.27700
H562        H  0.53538659  0.14900747  0.00704185     0.27700
H563        H  0.09703214  0.26709199  0.01850513     0.18300
H564        H  0.44819647  0.20435441  0.03249042     0.18300
C565        C  0.39738605  0.28640578  0.19218672    -0.07500
C566        C  0.42208908  0.27305757  0.18033468    -0.18700
C567        C  0.46153348  0.30089597  0.17222353     0.09700
C568        C  0.47654490  0.34253979  0.17708408    -0.07500
C569        C  0.45155817  0.35585018  0.18847143    -0.18700
C570        C  0.41227801  0.32806300  0.19663813     0.09700
S571        S  0.98409902  0.28189425  0.14845102    -0.33700
S572        S  0.38335026  0.34732044  0.21389430    -0.33700
H573        H  0.36815817  0.31790864  0.23495014     0.27700
H574        H  0.02288813  0.30556473  0.16003679     0.27700
H575        H  0.41065581  0.24089871  0.17755854     0.18300
H576        H  0.46301186  0.38797469  0.19149094     0.18300
C577        C  0.31073422  0.01436137  0.51125430    -0.07500
C578        C  0.28146947  0.48981069  0.49300907    -0.16900
C579        C  0.24280761  0.46136444  0.50190221     0.09700
C580        C  0.23397778  0.45934402  0.53023358    -0.07500
C581        C  0.26368474  0.48612807  0.54896989    -0.18700
C582        C  0.30202739  0.51505728  0.53998414     0.09700
S583        S  0.20708940  0.42778358  0.47642428    -0.33700
S584        S  0.33603182  0.05046107  0.56399969    -0.33700
H585        H  0.35423176  0.08290404  0.54515700     0.27700
H586        H  0.18884251  0.39359874  0.49377512     0.27700
H587        H  0.28776682  0.98876451  0.47070254     0.18300
H588        H  0.25655216  0.48535838  0.57074540     0.18300
C589        C  0.16081499  0.02652873  0.68481284    -0.07500
C590        C  0.14440630  0.04802049  0.69749096    -0.18700
C591        C  0.16954260  0.08771237  0.70620521     0.09700
C592        C  0.21155534  0.10628645  0.70090402    -0.07500
C593        C  0.22794855  0.08461448  0.68851383    -0.18700
C594        C  0.20294208  0.04476582  0.68029077     0.09700
S595        S  0.14596822  0.11226660  0.72402678    -0.33700
S596        S  0.22625124  0.02027867  0.66214711    -0.33700
H597        H  0.20033958  0.48265809  0.67130918     0.27700
H598        H  0.18024234  0.14180563  0.73826829     0.27700
H599        H  0.11182612  0.03392906  0.70025172     0.18300
H600        H  0.26045973  0.09886637  0.68530962     0.18300
C601        C  0.37766684  0.44120189  0.36589809    -0.07500
C602        C  0.33687204  0.43058423  0.36309604    -0.18700
C603        C  0.30730094  0.39065039  0.35745508     0.09700
C604        C  0.31894921  0.36105937  0.35449414    -0.07500
C605        C  0.35971934  0.37174639  0.35741377    -0.18700
C606        C  0.38930608  0.41170090  0.36258894     0.09700
S607        S  0.25523019  0.37898788  0.35453439    -0.33700
S608        S  0.44160784  0.42367821  0.36359532    -0.33700
H609        H  0.45810900  0.46393985  0.35440321     0.27700
H610        H  0.23777353  0.33807925  0.36240550     0.27700
H611        H  0.32782696  0.45308741  0.36642338     0.18300
H612        H  0.36891923  0.34940385  0.35384290     0.18300
C613        C  0.45133543  0.11186466  0.19481026    -0.07500
C614        C  0.41272501  0.08754732  0.18349965    -0.18700
C615        C  0.40036177  0.04816698  0.17510323     0.09700
C616        C  0.42681021  0.03270119  0.17912943    -0.07500
C617        C  0.46566716  0.05727286  0.19008740    -0.18700
C618        C  0.47801813  0.09664522  0.19848591     0.09700
S619        S  0.35113047  0.01985974  0.15887096    -0.33700
S620        S  0.02684440  0.12703483  0.21315339    -0.33700
H621        H  0.01606486  0.14665149  0.23318339     0.27700
H622        H  0.36222343  0.49924066  0.14002135     0.27700
H623        H  0.39216551  0.09932780  0.18126771     0.18300
H624        H  0.48621501  0.04549947  0.19241758     0.18300
C625        C  0.12233567  0.13068659  0.36655811    -0.07500
C626        C  0.08767775  0.11428136  0.34990322    -0.18700
C627        C  0.07138019  0.13803940  0.34154119     0.09700
C628        C  0.09058912  0.17891449  0.34993699    -0.07500
C629        C  0.12492111  0.19518066  0.36691554    -0.18700
C630        C  0.14102193  0.17131321  0.37549225     0.09700
S631        S  0.02681937  0.11483243  0.31973191    -0.33700
S632        S  0.18452079  0.19405199  0.39830630    -0.33700
H633        H  0.20099054  0.16985704  0.39034852     0.27700
H634        H  0.01081989  0.13915994  0.32839654     0.27700
H635        H  0.07271370  0.08258063  0.34400604     0.18300
H636        H  0.13987420  0.22687660  0.37281440     0.18300
C637        C  0.28689917  0.46363072  0.03265424    -0.07500
C638        C  0.31818542  0.50355299  0.02835368    -0.18700
C639        C  0.30857030  0.03427982  0.02289984     0.09700
C640        C  0.26766165  0.02454700  0.02147704    -0.07500
C641        C  0.23714081  0.48465892  0.02652756    -0.18700
C642        C  0.24600179  0.45404409  0.03159533     0.09700
S643        S  0.35038922  0.08532292  0.01890754    -0.33700
S644        S  0.20388893  0.40304357  0.03526930    -0.33700
H645        H  0.22434918  0.38377215  0.02475048     0.27700
H646        H  0.32882088  0.10472571  0.02687230     0.27700
H647        H  0.34964488  0.51122360  0.03030751     0.18300
H648        H  0.20497543  0.97710292  0.02466160     0.18300
C649        C  0.25344670  0.19924132  0.50820171    -0.07500
C650        C  0.29265298  0.22209295  0.51893528    -0.18700
C651        C  0.30661290  0.26123028  0.52826393     0.09700
C652        C  0.28121777  0.27808950  0.52568198    -0.07500
C653        C  0.24232173  0.25563033  0.51428772    -0.18700
C654        C  0.22820078  0.21622621  0.50509358     0.09700
S655        S  0.35617284  0.28717344  0.54428349    -0.33700
S656        S  0.17832487  0.18989155  0.48950440    -0.33700
H657        H  0.18350076  0.16204528  0.47356319     0.27700
H658        H  0.34649111  0.30664105  0.56508092     0.27700
H659        H  0.31218700  0.20901542  0.52050696     0.18300
H660        H  0.22279471  0.26871982  0.51289730     0.18300
C661        C  0.45152360  0.29258559  0.69783552    -0.07500
C662        C  0.48186102  0.33343761  0.69671624    -0.18700
C663        C  0.47186773  0.36329443  0.69163022     0.09700
C664        C  0.43093906  0.35175753  0.68696251    -0.07500
C665        C  0.40053761  0.31097168  0.68862072    -0.18700
C666        C  0.41048786  0.28113930  0.69380350     0.09700
S667        S  0.01232868  0.41704433  0.69294332    -0.33700
S668        S  0.36985592  0.22901245  0.69427259    -0.33700
H669        H  0.39376407  0.21216969  0.68617940     0.27700
H670        H  0.48740965  0.43214722  0.69826756     0.27700
H671        H  0.01367566  0.34391927  0.70208347     0.18300
H672        H  0.36918486  0.30209866  0.68425929     0.18300
C673        C  0.08939772  0.36490595  0.84408912    -0.07500
C674        C  0.12656483  0.38586268  0.85781136    -0.18700
C675        C  0.14143161  0.42569217  0.86603794     0.09700
C676        C  0.11860173  0.44466317  0.86000900    -0.07500
C677        C  0.08145801  0.42372955  0.84607717    -0.18700
C678        C  0.06660496  0.38369882  0.83783845     0.09700
S679        S  0.18799760  0.44939372  0.88582599    -0.33700
S680        S  0.01913157  0.35688009  0.81915495    -0.33700
H681        H  0.00954680  0.38805051  0.81990107     0.27700
H682        H  0.20232409  0.48893825  0.87610031     0.27700
H683        H  0.14413728  0.37114205  0.86194858     0.18300
H684        H  0.06384432  0.43847783  0.84234442     0.18300
C685        C  0.17358933  0.09185092  0.17421867    -0.07500
C686        C  0.16397450  0.07423430  0.20040485    -0.18700
C687        C  0.18429727  0.05552556  0.21093726     0.09700
C688        C  0.21631793  0.05669599  0.19552883    -0.07500
C689        C  0.22577820  0.07395413  0.16922249    -0.18700
C690        C  0.20450060  0.09154234  0.15826567     0.09700
S691        S  0.16677608  0.02907307  0.24346841    -0.33700
S692        S  0.21865826  0.11357616  0.12420271    -0.33700
H693        H  0.20776897  0.14342557  0.12829565     0.27700
H694        H  0.17873913  0.00024327  0.23824071     0.27700
H695        H  0.13898391  0.07299586  0.21197732     0.18300
H696        H  0.25072682  0.07506152  0.15768617     0.18300
C697        C  0.14669625  0.42015337  0.34754364    -0.07500
C698        C  0.13971770  0.40528171  0.37453146    -0.18700
C699        C  0.10100698  0.38793544  0.38574256     0.09700
C700        C  0.06887979  0.38506806  0.36927481    -0.07500
C701        C  0.07601039  0.40003320  0.34229466    -0.18700
C702        C  0.11499821  0.41894129  0.33158715     0.09700
S703        S  0.09464202  0.36977446  0.42091833    -0.33700
S704        S  0.12296115  0.44339084  0.29833704    -0.33700
H705        H  0.16304342  0.47426141  0.30381542     0.27700
H706        H  0.05452712  0.33785298  0.41742118     0.27700
H707        H  0.16418735  0.40603238  0.38655432     0.18300
H708        H  0.05164299  0.39942348  0.33022360     0.18300
C709        C  0.31336724  0.24746571  0.01727566    -0.07500
C710        C  0.29008599  0.20881493  0.02866972    -0.18700
C711        C  0.25054632  0.19541429  0.03726302     0.09700
C712        C  0.23415700  0.22107932  0.03364817    -0.07500
C713        C  0.25742612  0.25968426  0.02225744    -0.18700
C714        C  0.29676913  0.27292473  0.01341100     0.09700
S715        S  0.22318686  0.14584734  0.05292050    -0.33700
S716        S  0.32329536  0.32172333  0.99651360    -0.33700
H717        H  0.34611105  0.31266562  0.97806087     0.27700
H718        H  0.19838131  0.15345371  0.07046327     0.27700
H719        H  0.30274462  0.18899040  0.03070294     0.18300
H720        H  0.24463418  0.27935989  0.01996422     0.18300
C721        C  0.49897676  0.25069200  0.51333544    -0.07500
C722        C  0.03894039  0.28117841  0.51742713    -0.18700
C723        C  0.06865916  0.27099569  0.52299852     0.09700
C724        C  0.05734287  0.22975343  0.52528322    -0.07500
C725        C  0.01681862  0.19950436  0.52157697    -0.18700
C726        C  0.48752600  0.20952622  0.51614818     0.09700
S727        S  0.12048236  0.31167602  0.52659567    -0.33700
S728        S  0.43539165  0.16901035  0.51441096    -0.33700
H729        H  0.41852893  0.19220936  0.52403861     0.27700
H730        H  0.13875321  0.28872527  0.51946245     0.27700
H731        H  0.04775596  0.31277495  0.51463179     0.18300
H732        H  0.00785142  0.16789566  0.52454647     0.18300
C733        C  0.38441344  0.39168236  0.86126256    -0.07500
C734        C  0.34521163  0.36077722  0.85456759    -0.18700
C735        C  0.31487757  0.36992663  0.84871405     0.09700
C736        C  0.32410238  0.41070715  0.84958758    -0.07500
C737        C  0.36330508  0.44147937  0.85643904    -0.18700
C738        C  0.39380280  0.43242954  0.86152745     0.09700
S739        S  0.26494694  0.32843648  0.84060688    -0.33700
S740        S  0.44461290  0.47411616  0.86705278    -0.33700
H741        H  0.46450476  0.45431887  0.85643592     0.27700
H742        H  0.24348397  0.34697422  0.85053592     0.27700
H743        H  0.33773502  0.32933430  0.85514257     0.18300
H744        H  0.37094874  0.47296940  0.85595048     0.18300
C745        C  0.48300587  0.07548855  0.68907103    -0.07500
C746        C  0.46059074  0.03678595  0.70064942    -0.18700
C747        C  0.42089157  0.02254880  0.70951872     0.09700
C748        C  0.40322899  0.04700665  0.70529258    -0.07500
C749        C  0.42572971  0.08564262  0.69384371    -0.18700
C750        C  0.46562077  0.10032860  0.68588572     0.09700
S751        S  0.39489207  0.97357193  0.72613149    -0.33700
S752        S  0.49173122  0.14967159  0.66995348    -0.33700
H753        H  0.52746116  0.16312400  0.68544174     0.27700
H754        H  0.36932683  0.98105399  0.74299235     0.27700
H755        H  0.47397303  0.01758457  0.70252994     0.18300
H756        H  0.41216862  0.10461968  0.69133809     0.18300
C757        C  0.29261543  0.99752082  0.71495659     0.78800
N758        N  0.32908786  0.50811887  0.70380519    -0.79500
C759        C  0.36355952  0.53692448  0.71574098     0.81300
N760        N  0.36208300  0.55592697  0.73858634    -0.79400
C761        C  0.32645875  0.54654112  0.75030987     0.81400
N762        N  0.29084422  0.51663855  0.73876353    -0.81200
C763        C  0.08981438  0.63237716  0.66906840     0.78800
N764        N  0.05559301  0.61670645  0.68459499    -0.79500
C765        C  0.01998657  0.58653393  0.67475634     0.81300
N766        N  0.01783460  0.57151387  0.64928326    -0.79400
C767        C  0.05114688  0.58575665  0.63336988     0.81400
N768        N  0.08759541  0.61685591  0.64302925    -0.81200
C769        C  0.27485986  0.97019598  0.83278047     0.78800
N770        N  0.29404877  0.95427389  0.84742581    -0.79500
C771        C  0.29630642  0.92224941  0.83764710     0.81300
N772        N  0.28048863  0.90658204  0.81280225    -0.79400
C773        C  0.26112949  0.92117056  0.79760252     0.81400
N774        N  0.25825915  0.95361128  0.80738323    -0.81200
C775        C  0.43912979  0.83708810  0.87778044     0.78800
N776        N  0.45503787  0.85396087  0.90317762    -0.79500
C777        C  0.44863319  0.88394010  0.91354842     0.81300
N778        N  0.42634073  0.89575177  0.89903222    -0.79400
C779        C  0.41104555  0.87969365  0.87417888     0.81400
N780        N  0.41694038  0.85021033  0.86368471    -0.81200
C781        C  0.44363567  0.80547330  0.49881668     0.78800
N782        N  0.46602382  0.79201782  0.51224800    -0.79500
C783        C  0.47044086  0.76172729  0.50163439     0.81300
N784        N  0.45339426  0.74516538  0.47720906    -0.79400
C785        C  0.43103070  0.75759500  0.46319429     0.81400
N786        N  0.42611265  0.78836271  0.47379230    -0.81200
C787        C  0.10699348  0.67130068  0.54435220     0.78800
N788        N  0.12087979  0.68680490  0.57029057    -0.79500
C789        C  0.11651075  0.71835968  0.57985300     0.81300
N790        N  0.09844659  0.73356188  0.56382773    -0.79400
C791        C  0.08500317  0.71867702  0.53839140     0.81400
N792        N  0.08859481  0.68727517  0.52886457    -0.81200
C793        C  0.42175983  0.80188741  0.00048602     0.78800
N794        N  0.38670512  0.78771318  0.01494810    -0.79500
C795        C  0.35139955  0.75757962  0.00468905     0.81300
N796        N  0.35023013  0.74158943  0.97979715    -0.79400
C797        C  0.38415050  0.75485362  0.96476069     0.81400
N798        N  0.42047837  0.78559260  0.97485739    -0.81200
C799        C  0.12459994  0.66753715  0.04717411     0.78800
N800        N  0.12369385  0.68552498  0.07170447    -0.79500
C801        C  0.15935709  0.71667432  0.08239029     0.81300
N802        N  0.19448383  0.72830508  0.06911740    -0.79400
C803        C  0.19530150  0.71046613  0.04547841     0.81400
N804        N  0.16077746  0.68028952  0.03454672    -0.81200
C805        C  0.45790735  0.83450510  0.38039179     0.78800
N806        N  0.49442516  0.84607626  0.36858797    -0.79500
C807        C  0.02924245  0.87428075  0.38067823     0.81300
N808        N  0.02794799  0.89156591  0.40441647    -0.79400
C809        C  0.49241201  0.88102147  0.41690078     0.81400
N810        N  0.45668457  0.85183508  0.40509984    -0.81200
C811        C  0.25572679  0.97075699  0.33298815     0.78800
N812        N  0.25503687  0.95368502  0.30777936    -0.79500
C813        C  0.21855585  0.92419514  0.29702550     0.81300
N814        N  0.18405290  0.91352745  0.31067559    -0.79400
C815        C  0.18459736  0.93064581  0.33494679     0.81400
N816        N  0.22010542  0.95862689  0.34632199    -0.81200
C817        C  0.11345034  0.64145048  0.16322881     0.78800
N818        N  0.13866274  0.63026348  0.17514316    -0.79500
C819        C  0.14633038  0.60320579  0.16264984     0.81300
N820        N  0.12797779  0.58583134  0.13883923    -0.79400
C821        C  0.10203077  0.59518204  0.12668446     0.81400
N822        N  0.09490546  0.62391636  0.13849325    -0.81200
C823        C  0.27286598  0.00443531  0.21183765     0.78800
N824        N  0.25186782  0.51791681  0.19728566    -0.79500
C825        C  0.24540409  0.54692571  0.20787689     0.81300
N826        N  0.26100326  0.56361046  0.23250348    -0.79400
C827        C  0.28311806  0.55174122  0.24717421     0.81400
N828        N  0.28926912  0.52143774  0.23706434    -0.81200
C829        C  0.03663654  0.75471347  0.83146892     0.78800
N830        N  0.04962433  0.79082443  0.84423976    -0.79500
C831        C  0.07914406  0.82536943  0.83294509     0.81300
N832        N  0.09599447  0.82460625  0.80884947    -0.79400
C833        C  0.08411813  0.78946582  0.79557304     0.81400
N834        N  0.05370947  0.75385415  0.80658762    -0.81200
C835        C  0.17155098  0.55269602  0.87770929     0.78800
N836        N  0.15547159  0.55085061  0.90350829    -0.79500
C837        C  0.12513811  0.51426924  0.91351161     0.81300
N838        N  0.11344212  0.98007934  0.89895463    -0.79400
C839        C  0.12932068  0.98166375  0.87391434     0.81400
N840        N  0.15746957  0.51803701  0.86287562    -0.81200
C841        C  0.37363956  0.90216576  0.66783296     0.78800
N842        N  0.38981326  0.91659186  0.64207209    -0.79500
C843        C  0.42145533  0.91208503  0.63258574     0.81300
N844        N  0.43582430  0.89308055  0.64851202    -0.79400
C845        C  0.42013133  0.87905733  0.67372167     0.81400
N846        N  0.38892145  0.88303383  0.68313572    -0.81200
C847        C  0.00707315  0.73840617  0.71329083     0.78800
N848        N  0.49312674  0.76093435  0.70003414    -0.79500
C849        C  0.46243213  0.76484816  0.71050696     0.81300
N850        N  0.44633843  0.74847795  0.73507917    -0.79400
C851        C  0.45959866  0.72718575  0.74941450     0.81400
N852        N  0.49069872  0.72261176  0.73899977    -0.81200
C853        C  0.20239359  0.58944931  0.49712333     0.78800
N854        N  0.22065958  0.58821335  0.47282507    -0.79500
C855        C  0.25050658  0.62390003  0.46141169     0.81300
N856        N  0.26054371  0.65927392  0.47366550    -0.79400
C857        C  0.24236800  0.66046107  0.49698206     0.81400
N858        N  0.21355890  0.62593924  0.50879112    -0.81200
C859        C  0.33730844  0.88586622  0.54487120     0.78800
N860        N  0.32226290  0.85166654  0.52939135    -0.79500
C861        C  0.29159246  0.81617770  0.53888349     0.81300
N862        N  0.27596804  0.81390058  0.56412637    -0.79400
C863        C  0.29003426  0.84697217  0.58018233     0.81400
N864        N  0.32127233  0.88350109  0.57076722    -0.81200
C865        C  0.20908108  0.57254351  0.00153416     0.78800
N866        N  0.22514986  0.58675640  0.97575754    -0.79500
C867        C  0.25739236  0.58306691  0.96661031     0.81300
N868        N  0.27261535  0.56526064  0.98289366    -0.79400
C869        C  0.25712365  0.55143318  0.00816173     0.81400
N870        N  0.22518441  0.55450888  0.01723522    -0.81200
C871        C  0.34120281  0.90877100  0.04674852     0.78800
N872        N  0.32771469  0.93129412  0.03354395    -0.79500
C873        C  0.29707651  0.93526576  0.04416575     0.81300
N874        N  0.28033464  0.91772172  0.06837516    -0.79400
C875        C  0.29280007  0.89530678  0.08216559     0.81400
N876        N  0.32384754  0.89077498  0.07158551    -0.81200
C877        C  0.17591980  0.57538925  0.38077540     0.78800
N878        N  0.15846902  0.55757370  0.40569782    -0.79500
C879        C  0.12891056  0.56408956  0.41693115     0.81300
N880        N  0.11860537  0.58880846  0.40389994    -0.79400
C881        C  0.13572109  0.60621386  0.37977138     0.81400
N882        N  0.16386716  0.59938899  0.36809039    -0.81200
C883        C  0.04106536  0.73882266  0.33410474     0.78800
N884        N  0.05453178  0.71743002  0.34870569    -0.79500
C885        C  0.08332003  0.71046301  0.33827454     0.81300
N886        N  0.09947266  0.72492635  0.31329430    -0.79400
C887        C  0.08759842  0.74697223  0.29838388     0.81400
N888        N  0.05758530  0.75362741  0.30848810    -0.81200
C889        C  0.00475599  0.72089250  0.21106866     0.78800
N890        N  0.48850792  0.71996440  0.23666880    -0.79500
C891        C  0.45765590  0.68366501  0.24656848     0.81300
N892        N  0.44435666  0.64987916  0.23137036    -0.79400
C893        C  0.46040094  0.65116775  0.20646743     0.81400
N894        N  0.49058271  0.68650638  0.19640848    -0.81200
C895        C  0.37237415  0.92285062  0.16609662     0.78800
N896        N  0.38999055  0.92202173  0.14141676    -0.79500
C897        C  0.42160465  0.95739518  0.13094202     0.81300
N898        N  0.43432956  0.99239407  0.14465366    -0.79400
C899        C  0.41692333  0.99337377  0.16849027     0.81400
N900        N  0.38597193  0.95896385  0.17911149    -0.81200
C901        C  0.26960374  0.75313735  0.33530703     0.78800
N902        N  0.28798933  0.78742431  0.35085492    -0.79500
C903        C  0.29146038  0.82248309  0.34146429     0.81300
N904        N  0.27791456  0.82413458  0.31607179    -0.79400
C905        C  0.25981095  0.79104564  0.29993058     0.81400
N906        N  0.25555332  0.75500170  0.30939440    -0.81200
C907        C  0.43375714  0.55110838  0.38031172     0.78800
N908        N  0.41045411  0.51517317  0.36720887    -0.79500
C909        C  0.40471072  0.97997714  0.37851228     0.81300
N910        N  0.42246880  0.98057212  0.40265529    -0.79400
C911        C  0.44643064  0.51560054  0.41587080     0.81400
N912        N  0.45171273  0.55143544  0.40517164    -0.81200
C913        C  0.26871554  0.71672485  0.71302552     0.78800
N914        N  0.24473349  0.68048880  0.70050928    -0.79500
C915        C  0.23844947  0.64576965  0.71235959     0.81300
N916        N  0.25641002  0.64659455  0.73636064    -0.79400
C917        C  0.28099477  0.68184597  0.74913405     0.81400
N918        N  0.28694893  0.71755837  0.73783031    -0.81200
C919        C  0.10489175  0.91853585  0.66698206     0.78800
N920        N  0.12590165  0.95318311  0.68177910    -0.79500
C921        C  0.13314788  0.98901760  0.67135056     0.81300
N922        N  0.11915894  0.99101988  0.64624931    -0.79400
C923        C  0.09738661  0.95732801  0.63114231     0.81400
N924        N  0.09054894  0.92053828  0.64118448    -0.81200
C925        C  0.42174055  0.56817802  0.49903944     0.78800
N926        N  0.42309601  0.58547312  0.47370200    -0.79500
C927        C  0.38798077  0.58168507  0.46266437     0.81300
N928        N  0.35299511  0.56078726  0.47640916    -0.79400
C929        C  0.35132541  0.54376016  0.50091166     0.81400
N930        N  0.38546726  0.54721057  0.51225056    -0.81200
C931        C  0.12356138  0.90299186  0.54492186     0.78800
N932        N  0.15911225  0.92450529  0.53096955    -0.79500
C933        C  0.19423111  0.92931768  0.54153153     0.81300
N934        N  0.19431128  0.91306777  0.56612463    -0.79400
C935        C  0.16008802  0.89186704  0.58067099     0.81400
N936        N  0.12407680  0.88686814  0.57034655    -0.81200
C937        C  0.28924071  0.73490982  0.21025516     0.78800
N938        N  0.29085371  0.72029506  0.23599332    -0.79500
C939        C  0.32695581  0.72460420  0.24555062     0.81300
N940        N  0.36041694  0.74364204  0.22981827    -0.79400
C941        C  0.35904426  0.75823456  0.20480541     0.81400
N942        N  0.32388931  0.75434668  0.19518247    -0.81200
C943        C  0.08757484  0.90069713  0.16559190     0.78800
N944        N  0.05131960  0.87778815  0.17840657    -0.79500
C945        C  0.01682048  0.87367861  0.16739194     0.81300
N946        N  0.01781384  0.89172858  0.14341144    -0.79400
C947        C  0.05291961  0.91433109  0.12989900     0.81400
N948        N  0.08845040  0.91880877  0.14072076    -0.81200
C949        C  0.43833890  0.58662603  0.00087426     0.78800
N950        N  0.45876373  0.62126714  0.01579879    -0.79500
C951        C  0.46472149  0.65683366  0.00563802     0.81300
N952        N  0.45035773  0.65852915  0.98060353    -0.79400
C953        C  0.42952730  0.62485957  0.96530382     0.81400
N954        N  0.42377379  0.58841028  0.97514317    -0.81200
C955        C  0.10199105  0.88515765  0.04683400     0.78800
N956        N  0.07963379  0.84929617  0.03356719    -0.79500
C957        C  0.07355610  0.81449538  0.04507060     0.81300
N958        N  0.09007709  0.81489205  0.06965114    -0.79400
C959        C  0.11312973  0.84988916  0.08323235     0.81400
N960        N  0.11881354  0.88563007  0.07216540    -0.81200
C961        C  0.25451091  0.73410374  0.83308847     0.78800
N962        N  0.25351363  0.74847420  0.80715855    -0.79500
C963        C  0.21787102  0.74488692  0.79741147     0.81300
N964        N  0.18433192  0.72686371  0.81315893    -0.79400
C965        C  0.18519970  0.71294000  0.83853138     0.81400
N966        N  0.21995358  0.71607679  0.84831012    -0.81200
C967        C  0.45758132  0.57048746  0.87787001     0.78800
N968        N  0.45866739  0.55476924  0.90326718    -0.79500
C969        C  0.49477998  0.55957961  0.91310026     0.81300
N970        N  0.02905043  0.58096106  0.89864573    -0.79400
C971        C  0.02820759  0.59645217  0.87388145     0.81400
N972        N  0.49272477  0.59151422  0.86339656    -0.81200
O973        O  0.36523606  0.58888237  0.78728097    -0.87900
O974        O  0.23199025  0.61641259  0.88550780    -0.88100
O975        O  0.27136345  0.53086602  0.82609956    -0.89700
O976        O  0.28274431  0.64288509  0.78658064    -0.88500
O977        O  0.33154640  0.71033178  0.78369820    -0.88100
O978        O  0.30067222  0.52329360  0.86558886    -0.89400
O979        O  0.22413179  0.58222803  0.84473150    -0.87900
O980        O  0.29777287  0.57015067  0.78393689    -0.87500
Zr981      Zr  0.29127500  0.60303587  0.82439602     2.84300
O982        O  0.30627869  0.66652935  0.84021813    -1.09500
O983        O  0.34183659  0.58966890  0.84061846    -1.10200
C984        C  0.32941714  0.56939689  0.77564758     1.05200
C985        C  0.21077246  0.58744975  0.86823835     1.05200
C986        C  0.28098767  0.51000891  0.84235918     1.08100
C987        C  0.29945722  0.67869483  0.77504898     1.05900
H988        H  0.26860734  0.57895850  0.88035796     0.31500
O989        O  0.29276756  0.60172451  0.87299012    -1.30400
H990        H  0.35570733  0.65281610  0.78864121     0.31200
O991        O  0.35560307  0.65286947  0.80861783    -1.32100
O992        O  0.34326555  0.71372359  0.92742464    -0.87900
O993        O  0.47719941  0.68965986  0.82607620    -0.89400
O994        O  0.29676819  0.58125885  0.92866745    -0.88000
O995        O  0.31844153  0.73742930  0.82634283    -0.88000
O996        O  0.41958339  0.72683568  0.78693909    -0.87700
O997        O  0.39349307  0.56669058  0.88567273    -0.87500
O998        O  0.42904451  0.66596615  0.92807322    -0.87900
O999        O  0.44339861  0.77711357  0.88531822    -0.87400
O1000       O  0.38324554  0.59737522  0.92872775    -0.88400
O1001       O  0.41597861  0.78450030  0.84480569    -0.87600
O1002       O  0.27477833  0.62764359  0.92925636    -0.88000
O1003       O  0.42772238  0.59343191  0.84498340    -0.87700
O1004       O  0.43774413  0.67769551  0.78442304    -0.87400
O1005       O  0.28190416  0.70852914  0.86591327    -0.87800
O1006       O  0.41181411  0.73610323  0.92845504    -0.88100
O1007       O  0.48514409  0.72678363  0.86540874    -0.89400
Zr1008     Zr  0.30511832  0.66583656  0.88850746     2.83100
Zr1009     Zr  0.40511547  0.63816032  0.82466203     2.83500
Zr1010     Zr  0.34298497  0.58922374  0.88887460     2.84100
Zr1011     Zr  0.37043131  0.71725065  0.82439724     2.83400
Zr1012     Zr  0.41968166  0.70395358  0.88871614     2.84200
O1013       O  0.41872294  0.70220329  0.84048776    -1.10000
O1014       O  0.35595807  0.65303435  0.90398775    -1.09500
C1015       C  0.37971031  0.73426752  0.93820676     1.05200
C1016       C  0.49792060  0.72039491  0.84206855     1.07800
C1017       C  0.27691954  0.59779812  0.93949765     1.05400
C1018       C  0.28818244  0.72801700  0.84271950     1.05700
C1019       C  0.43852881  0.70982413  0.77563547     1.05300
C1020       C  0.42268384  0.57487808  0.86846393     1.04900
C1021       C  0.41331708  0.62951259  0.93872280     1.05300
C1022       C  0.43498450  0.79805821  0.86820087     1.04800
H1023       H  0.42986627  0.64027350  0.88039351     0.31500
O1024       O  0.40681681  0.64127629  0.87311899    -1.31100
H1025       H  0.36898722  0.74005220  0.88008057     0.31500
O1026       O  0.36776288  0.71594191  0.87286451    -1.32500
O1027       O  0.44930306  0.92543013  0.95075824    -0.87900
O1028       O  0.10811472  0.95029131  0.05211314    -0.88100
O1029       O  0.08368478  0.97310943  0.95096918    -0.89700
O1030       O  0.48555051  0.86241899  0.99284001    -0.88500
O1031       O  0.45110498  0.85471224  0.03348337    -0.88100
O1032       O  0.10568932  0.54159305  0.94980693    -0.89400
O1033       O  0.07769769  0.91250299  0.01320142    -0.87900
O1034       O  0.49624113  0.90412027  0.94942772    -0.87500
Zr1035     Zr  0.03538473  0.93559002  0.98985191     2.84300
O1036       O  0.03650779  0.93741919  0.03810172    -1.09500
O1037       O  0.02248985  0.98630939  0.97432341    -1.10200
C1038       C  0.46546866  0.90526855  0.93985837     1.05200
C1039       C  0.09764513  0.91932508  0.03628783     1.05200
C1040       C  0.10436095  0.00946556  0.94019684     1.08100
C1041       C  0.45640804  0.84127258  0.01001573     1.05900
H1042       H  0.10995358  0.99977226  0.99794212     0.31500
O1043       O  0.08574510  0.99842170  0.00514083    -1.30400
H1044       H  0.44828143  0.89923043  0.99827496     0.31200
O1045       O  0.47123094  0.92335294  0.00549490    -1.32100
O1046       O  0.09820246  0.55192610  0.09035595    -0.87900
O1047       O  0.43557327  0.52327403  0.99276188    -0.89400
O1048       O  0.14743239  0.57385087  0.99307866    -0.88000
O1049       O  0.51296646  0.91412658  0.09223940    -0.88000
O1050       O  0.40082928  0.90322016  0.05267480    -0.87700
O1051       O  0.03595247  0.55960279  0.95087074    -0.87500
O1052       O  0.05938690  0.60808761  0.05259601    -0.87900
O1053       O  0.46193767  0.49730396  0.09307542    -0.87400
O1054       O  0.09730892  0.61523440  0.01384194    -0.88400
O1055       O  0.44153933  0.92884554  0.09513188    -0.87600
O1056       O  0.15484371  0.54622766  0.03341566    -0.88000
O1057       O  0.46710906  0.51298587  0.94940155    -0.87700
O1058       O  0.39304937  0.93216272  0.01311167    -0.87400
O1059       O  0.08117974  0.96324040  0.09433686    -0.87800
O1060       O  0.04952584  0.57069919  0.09341544    -0.88100
O1061       O  0.46160772  0.55699917  0.03374946    -0.89400
Zr1062     Zr  0.08745841  0.00168076  0.05353914     2.83100
Zr1063     Zr  0.45873090  0.97343526  0.98962696     2.83500
Zr1064     Zr  0.07407704  0.55003496  0.98986146     2.84100
Zr1065     Zr  0.47284409  0.92198325  0.05406974     2.83400
Zr1066     Zr  0.00827012  0.53585256  0.05422766     2.84200
O1067       O  0.45935633  0.97242400  0.03792746    -1.10000
O1068       O  0.07220793  0.54913032  0.03804543    -1.09500
C1069       C  0.08216573  0.57186662  0.10156958     1.05200
C1070       C  0.44314484  0.55200201  0.01016828     1.07800
C1071       C  0.16859935  0.56578910  0.01027220     1.05400
C1072       C  0.04955727  0.93159028  0.10345182     1.05700
C1073       C  0.38007789  0.91315957  0.03651421     1.05300
C1074       C  0.99952049  0.54366400  0.94007900     1.04900
C1075       C  0.09045533  0.62855317  0.03682138     1.05300
C1076       C  0.44202951  0.96062735  0.10438178     1.04800
H1077       H  0.01003849  0.56042353  0.99854240     0.31500
O1078       O  0.01135595  0.53752351  0.00569450    -1.31100
H1079       H  0.02376541  0.98734196  0.08958873     0.31500
O1080       O  0.02321834  0.98691550  0.06962071    -1.32500
O1081       O  0.43031940  0.71754976  0.42546326    -0.87900
O1082       O  0.26840245  0.69033180  0.32689045    -0.88100
O1083       O  0.39272788  0.77562955  0.38552424    -0.89700
O1084       O  0.29239757  0.66311489  0.42454230    -0.88500
O1085       O  0.27414750  0.59584914  0.42753904    -0.88100
O1086       O  0.42952704  0.78399013  0.34594262    -0.89400
O1087       O  0.29534612  0.72479974  0.36751933    -0.87900
O1088       O  0.38131076  0.73594667  0.42791464    -0.87500
Zr1089     Zr  0.34157449  0.70348465  0.38737305     2.84300
O1090       O  0.29364601  0.63994481  0.37141348    -1.09500
O1091       O  0.40577983  0.71758955  0.37136641    -1.10200
C1092       C  0.41335474  0.73646039  0.43687436     1.05200
C1093       C  0.27604667  0.71923154  0.34423465     1.05200
C1094       C  0.42326457  0.79656208  0.36942161     1.08100
C1095       C  0.27310981  0.62722685  0.43595345     1.05900
H1096       H  0.34240206  0.72781855  0.33157483     0.31500
O1097       O  0.34407556  0.70513767  0.33884000    -1.30400
H1098       H  0.35681579  0.65416889  0.42317580     0.31200
O1099       O  0.35678714  0.65419945  0.40319453    -1.32100
O1100       O  0.28346337  0.59317456  0.28430383    -0.87900
O1101       O  0.44048806  0.61673670  0.38587532    -0.89400
O1102       O  0.36822359  0.72615491  0.28345738    -0.88000
O1103       O  0.23500015  0.56870499  0.38595663    -0.88000
O1104       O  0.34864264  0.58189295  0.42483260    -0.87700
O1105       O  0.48044362  0.74216823  0.32630506    -0.87500
O1106       O  0.41717552  0.64264262  0.28398536    -0.87900
O1107       O  0.32056990  0.53099401  0.32574645    -0.87400
O1108       O  0.43924703  0.71101735  0.28322447    -0.88400
O1109       O  0.28643677  0.52265440  0.36660214    -0.87600
O1110       O  0.29973448  0.67960403  0.28274433    -0.88000
O1111       O  0.48839163  0.71569139  0.36703286    -0.87700
O1112       O  0.41619645  0.63081315  0.42741740    -0.87400
O1113       O  0.22698338  0.59806429  0.34667231    -0.87800
O1114       O  0.33065394  0.57218050  0.28300458    -0.88100
O1115       O  0.41160297  0.58016112  0.34629286    -0.89400
Zr1116     Zr  0.29241097  0.64097157  0.32322143     2.83100
Zr1117     Zr  0.42134125  0.66957554  0.38725329     2.83500
Zr1118     Zr  0.40700271  0.71833099  0.32308085     2.84100
Zr1119     Zr  0.30746974  0.58961315  0.38733928     2.83400
Zr1120     Zr  0.36988516  0.60413731  0.32305478     2.84200
O1121       O  0.37095692  0.60554655  0.37123869    -1.10000
O1122       O  0.35631105  0.65449763  0.30777365    -1.09500
C1123       C  0.29978844  0.57312733  0.27344899     1.05200
C1124       C  0.43035788  0.58601448  0.36980544     1.07800
C1125       C  0.33172358  0.70961930  0.27260504     1.05400
C1126       C  0.21418150  0.57881757  0.37003320     1.05700
C1127       C  0.38472251  0.59884915  0.43622782     1.05300
C1128       C  0.50172876  0.73432310  0.34355018     1.04900
C1129       C  0.43741420  0.67906165  0.27326709     1.05300
C1130       C  0.29151701  0.50963016  0.34291154     1.04800
H1131       H  0.44399798  0.66827187  0.33148687     0.31500
O1132       O  0.41982066  0.66688241  0.33875068    -1.31100
H1133       H  0.28277178  0.56712315  0.33161041     0.31500
O1134       O  0.30569472  0.59135096  0.33884773    -1.32500
O1135       O  0.22629854  0.93963861  0.71949003    -0.87900
O1136       O  0.24918750  0.80531985  0.61764641    -0.88100
O1137       O  0.31256014  0.90445605  0.65977659    -0.89700
O1138       O  0.20073189  0.89110144  0.61806418    -0.88500
O1139       O  0.13230117  0.84450399  0.61666613    -0.88100
O1140       O  0.32041155  0.87807358  0.70059661    -0.89400
O1141       O  0.27099470  0.87364546  0.61684537    -0.87900
O1142       O  0.26396553  0.94692965  0.68058546    -0.87500
Zr1143     Zr  0.23943997  0.88149870  0.65688824     2.84300
O1144       O  0.18863726  0.81783514  0.64141545    -1.09500
O1145       O  0.23797125  0.88092501  0.70511606    -1.10200
C1146       C  0.25758440  0.95991882  0.70384184     1.05200
C1147       C  0.26944411  0.84180593  0.60692138     1.05200
C1148       C  0.33382764  0.89669740  0.67706170     1.08100
C1149       C  0.16432198  0.87512269  0.60711898     1.05900
H1150       H  0.27540684  0.83085513  0.66564977     0.31500
O1151       O  0.25132690  0.82973451  0.67291357    -1.30400
H1152       H  0.17560326  0.89206707  0.66514366     0.31200
O1153       O  0.17678122  0.86913376  0.67238053    -1.32100
O1154       O  0.15281305  0.69382504  0.66079366    -0.87900
O1155       O  0.12492985  0.82836689  0.75823755    -0.89400
O1156       O  0.27379310  0.78131888  0.71915868    -0.88000
O1157       O  0.11561176  0.75821756  0.61746168    -0.88000
O1158       O  0.10136620  0.85462568  0.65934501    -0.87700
O1159       O  0.26133386  0.88101451  0.75987170    -0.87500
O1160       O  0.17760734  0.74416279  0.75959179    -0.87900
O1161       O  0.06696562  0.73365862  0.71938169    -0.87400
O1162       O  0.24545978  0.79245565  0.76140600    -0.88400
O1163       O  0.05923195  0.76282123  0.67992118    -0.87600
O1164       O  0.24517875  0.74487577  0.67940780    -0.88000
O1165       O  0.21288176  0.90031086  0.76148809    -0.87700
O1166       O  0.12803616  0.88898980  0.70004306    -0.87400
O1167       O  0.16145837  0.73550593  0.61701598    -0.87800
O1168       O  0.11770708  0.68648205  0.70103713    -0.88100
O1169       O  0.10625776  0.76098353  0.76122270    -0.89400
Zr1170     Zr  0.20159621  0.76717301  0.65695943     2.83100
Zr1171     Zr  0.17393260  0.86772193  0.72081828     2.83500
Zr1172     Zr  0.25314527  0.83289560  0.72143102     2.84100
Zr1173     Zr  0.12489494  0.80503977  0.65675653     2.83400
Zr1174     Zr  0.13908344  0.75370751  0.72116278     2.84200
O1175       O  0.12566328  0.80421929  0.70498907    -1.10000
O1176       O  0.20259454  0.76881605  0.70531663    -1.09500
C1177       C  0.12367204  0.67267840  0.67798713     1.05200
C1178       C  0.10569153  0.79256861  0.76971650     1.07800
C1179       C  0.26438573  0.75108788  0.70276183     1.05400
C1180       C  0.13163402  0.73786092  0.60683157     1.05700
C1181       C  0.10928153  0.88370416  0.67651866     1.05300
C1182       C  0.24444542  0.90037041  0.77094016     1.04900
C1183       C  0.21380756  0.76099811  0.77069245     1.05300
C1184       C  0.04620139  0.74347825  0.70319803     1.04800
H1185       H  0.18848954  0.81813779  0.75689826     0.31500
O1186       O  0.18863251  0.81814738  0.73691960    -1.31100
H1187       H  0.11477849  0.73051391  0.66532166     0.31500
O1188       O  0.13747846  0.75483727  0.67257760    -1.32500
O1189       O  0.19888016  0.75782201  0.11981515    -0.87900
O1190       O  0.06547448  0.78456745  0.21890020    -0.88100
O1191       O  0.10558216  0.69959020  0.15866282    -0.89700
O1192       O  0.11482672  0.81073860  0.12057088    -0.88500
O1193       O  0.16369423  0.87816599  0.11789306    -0.88100
O1194       O  0.13491205  0.69155327  0.19797451    -0.89400
O1195       O  0.05785660  0.74973606  0.17848016    -0.87900
O1196       O  0.13127675  0.73898126  0.11714868    -0.87500
Zr1197     Zr  0.12495445  0.77139653  0.15782312     2.84300
O1198       O  0.14016012  0.83476763  0.17373591    -1.09500
O1199       O  0.17579951  0.75827724  0.17370961    -1.10200
C1200       C  0.16284843  0.73853024  0.10836371     1.05200
C1201       C  0.04430681  0.75535953  0.20175972     1.05200
C1202       C  0.11605339  0.67898010  0.17443360     1.08100
C1203       C  0.13142448  0.84663279  0.10924487     1.05900
H1204       H  0.10211521  0.74670858  0.21356705     0.31500
O1205       O  0.12631741  0.76950898  0.20631878    -1.30400
H1206       H  0.18923858  0.82107324  0.12207776     0.31200
O1207       O  0.18943221  0.82100702  0.14204936    -1.32100
O1208       O  0.17784332  0.88206495  0.26026879    -0.87900
O1209       O  0.31177450  0.85849584  0.15963030    -0.89400
O1210       O  0.12874683  0.74717639  0.26097814    -0.88000
O1211       O  0.15256103  0.90585858  0.15981901    -0.88000
O1212       O  0.25251872  0.89429031  0.11979384    -0.87700
O1213       O  0.22629259  0.73341635  0.21857155    -0.87500
O1214       O  0.26154437  0.83230191  0.26188290    -0.87900
O1215       O  0.27679421  0.94423951  0.21930521    -0.87400
O1216       O  0.21472960  0.76400510  0.26264904    -0.88400
O1217       O  0.25011097  0.95222377  0.17862305    -0.87600
O1218       O  0.10761822  0.79420451  0.26229349    -0.88000
O1219       O  0.26068112  0.76027910  0.17792117    -0.87700
O1220       O  0.27138423  0.84566711  0.11721479    -0.87400
O1221       O  0.11531601  0.87603322  0.19899462    -0.87800
O1222       O  0.24611433  0.90311553  0.26202305    -0.88100
O1223       O  0.31980929  0.89474755  0.19940573    -0.89400
Zr1224     Zr  0.13881463  0.83358118  0.22196124     2.83100
Zr1225     Zr  0.23931301  0.80633032  0.15771314     2.83500
Zr1226     Zr  0.17652937  0.75682511  0.22190610     2.84100
Zr1227     Zr  0.20431761  0.88527234  0.15787818     2.83400
Zr1228     Zr  0.25367621  0.87113783  0.22217980     2.84200
O1229       O  0.25293444  0.87027214  0.17384098    -1.10000
O1230       O  0.18964946  0.82051238  0.23727616    -1.09500
C1231       C  0.21421286  0.90230231  0.27118849     1.05200
C1232       C  0.33283991  0.88874794  0.17602812     1.07800
C1233       C  0.10875695  0.76347428  0.27192574     1.05400
C1234       C  0.12180163  0.89578541  0.17586304     1.05700
C1235       C  0.27163581  0.87752818  0.10835960     1.05300
C1236       C  0.25518754  0.74107954  0.20123228     1.04900
C1237       C  0.24490866  0.79589109  0.27278804     1.05300
C1238       C  0.26873704  0.96544872  0.20218569     1.04800
H1239       H  0.26361892  0.80717934  0.21364466     0.31500
O1240       O  0.24081149  0.80855872  0.20632240    -1.31100
H1241       H  0.20292546  0.90737880  0.21353746     0.31500
O1242       O  0.20170743  0.88324937  0.20632415    -1.32500
O1243       O  0.50972298  0.54587732  0.59549259    -0.87900
O1244       O  0.14415465  0.52338454  0.49247030    -0.88100
O1245       O  0.09688104  0.49930845  0.59428743    -0.89700
O1246       O  0.10899477  0.61027179  0.55252496    -0.88500
O1247       O  0.08221308  0.61800092  0.51183307    -0.88100
O1248       O  0.04984715  0.93057003  0.59522044    -0.89400
O1249       O  0.15140878  0.56120200  0.53130530    -0.87900
O1250       O  0.07827087  0.56827707  0.59600876    -0.87500
Zr1251     Zr  0.08616630  0.53735002  0.55553355     2.84300
O1252       O  0.08520377  0.53596804  0.50727935    -1.09500
O1253       O  0.02253815  0.98613204  0.57096165    -1.10200
C1254       C  0.04622424  0.56605860  0.60626620     1.05200
C1255       C  0.16450230  0.55462976  0.50812759     1.05200
C1256       C  0.08076807  0.96233704  0.60481643     1.08100
C1257       C  0.10112418  0.63144017  0.53525034     1.05900
H1258       H  0.09638837  0.97330220  0.54679704     0.31500
O1259       O  0.07335550  0.97446729  0.53963191    -1.30400
H1260       H  0.03521610  0.57320241  0.54732595     0.31200
O1261       O  0.03394901  0.54913309  0.53994630    -1.32100
O1262       O  0.03156868  0.92246186  0.45388473    -0.87900
O1263       O  0.39831479  0.94944742  0.55297959    -0.89400
O1264       O  0.05938706  0.89924866  0.55211787    -0.88000
O1265       O  0.08659563  0.56149159  0.45391201    -0.88000
O1266       O  0.48607649  0.57214424  0.49350611    -0.87700
O1267       O  0.46212081  0.91197698  0.59490903    -0.87500
O1268       O  0.43774582  0.86477305  0.49300073    -0.87900
O1269       O  0.44766396  0.97600822  0.45362438    -0.87400
O1270       O  0.46751464  0.85729759  0.53228845    -0.88400
O1271       O  0.49678820  0.54339366  0.45082792    -0.87600
O1272       O  0.09431306  0.92664368  0.51173952    -0.88000
O1273       O  0.44041349  0.95856434  0.59601048    -0.87700
O1274       O  0.44813661  0.54164427  0.53235935    -0.87400
O1275       O  0.10522660  0.51273928  0.45114835    -0.87800
O1276       O  0.46413681  0.90411739  0.45094147    -0.88100
O1277       O  0.39051718  0.91524231  0.51221900    -0.89400
Zr1278     Zr  0.07190567  0.47214971  0.49118024     2.83100
Zr1279     Zr  0.47160484  0.99916841  0.55590055     2.83500
Zr1280     Zr  0.00951531  0.92252646  0.55542823     2.84100
Zr1281     Zr  0.03672967  0.55091830  0.49133459     2.83400
Zr1282     Zr  0.45762705  0.93681998  0.49139274     2.84200
O1283       O  0.47310133  0.00018853  0.50753787    -1.10000
O1284       O  0.00825645  0.92342573  0.50716474    -1.09500
C1285       C  0.99565318  0.90329307  0.44237735     1.05200
C1286       C  0.37705775  0.92044365  0.53570095     1.07800
C1287       C  0.08885605  0.90763960  0.53513291     1.05400
C1288       C  0.10618970  0.54510981  0.44259913     1.05700
C1289       C  0.45519888  0.56203831  0.50941666     1.05300
C1290       C  0.44195451  0.92808977  0.60580569     1.04900
C1291       C  0.44803038  0.84422989  0.50903779     1.05300
C1292       C  0.46427286  0.01195437  0.44226427     1.04800
H1293       H  0.43544015  0.91254300  0.54722423     0.31500
O1294       O  0.45955466  0.93539472  0.53995170    -1.31100
H1295       H  0.02202322  0.48686848  0.45531111     0.31500
O1296       O  0.02187473  0.98628476  0.47529544    -1.32500
C1297       C  0.06694447  0.62453566  0.86145743    -0.07500
C1298       C  0.07552516  0.66436238  0.85697130    -0.18700
C1299       C  0.11517029  0.69517017  0.85210748     0.09700
C1300       C  0.14652709  0.68568050  0.85134654    -0.07500
C1301       C  0.13792337  0.64591201  0.85602540    -0.18700
C1302       C  0.09832205  0.61510875  0.86059659     0.09700
S1303       S  0.12413174  0.74601264  0.84753527    -0.33700
S1304       S  0.08941916  0.56417495  0.86437753    -0.33700
H1305       H  0.04871415  0.54434671  0.85555005     0.27700
H1306       H  0.16492273  0.76586600  0.85620022     0.27700
H1307       H  0.05163449  0.67187739  0.85868329     0.18300
H1308       H  0.16174060  0.63828234  0.85432343     0.18300
C1309       C  0.04543282  0.77574505  0.03315760    -0.07500
C1310       C  0.06161214  0.75402235  0.02054437    -0.18700
C1311       C  0.03649465  0.71377823  0.01306931     0.09700
C1312       C  0.49259361  0.69465300  0.01873494    -0.07500
C1313       C  0.97835769  0.71697543  0.03108921    -0.18700
C1314       C  0.00354022  0.75714333  0.03878923     0.09700
S1315       S  0.05931727  0.68852992  0.99534218    -0.33700
S1316       S  0.98086378  0.78206965  0.05711764    -0.33700
H1317       H  0.00587170  0.82076640  0.04596712     0.27700
H1318       H  0.53373119  0.65022345  0.00717297     0.27700
H1319       H  0.09404548  0.76829826  0.01699890     0.18300
H1320       H  0.44401360  0.70238133  0.03471198     0.18300
C1321       C  0.39735237  0.78761777  0.19286597    -0.07500
C1322       C  0.42113187  0.77382944  0.18018190    -0.18700
C1323       C  0.46073527  0.80114504  0.17210143     0.09700
C1324       C  0.47692287  0.84275147  0.17797447    -0.07500
C1325       C  0.45286962  0.85651273  0.19031570    -0.18700
C1326       C  0.41329899  0.82921503  0.19824753     0.09700
S1327       S  0.98736275  0.78241946  0.15142438    -0.33700
S1328       S  0.38506032  0.84907207  0.21576995    -0.33700
H1329       H  0.36685018  0.81801114  0.23556259     0.27700
H1330       H  0.01406095  0.81776292  0.13687602     0.27700
H1331       H  0.40879113  0.74166362  0.17666891     0.18300
H1332       H  0.46512669  0.88863849  0.19396677     0.18300
C1333       C  0.31134767  0.51604846  0.51187518    -0.07500
C1334       C  0.28072686  0.98804382  0.49249476    -0.16900
C1335       C  0.24203057  0.95987878  0.50151535     0.09700
C1336       C  0.23338284  0.95816130  0.52986608    -0.07500
C1337       C  0.26318650  0.98515429  0.54845707    -0.18700
C1338       C  0.30151049  0.01385161  0.53933549     0.09700
S1339       S  0.20597476  0.92634364  0.47618342    -0.33700
S1340       S  0.33643519  0.55130162  0.56486861    -0.33700
H1341       H  0.35481778  0.58398839  0.54623004     0.27700
H1342       H  0.18816806  0.89215759  0.49354219     0.27700
H1343       H  0.28860580  0.49075658  0.47121796     0.18300
H1344       H  0.25615340  0.98473318  0.57022249     0.18300
C1345       C  0.16017055  0.52651270  0.68542356    -0.07500
C1346       C  0.14372512  0.54704496  0.69933677    -0.18700
C1347       C  0.16848000  0.58706562  0.70757087     0.09700
C1348       C  0.21017782  0.60674478  0.70093664    -0.07500
C1349       C  0.22667353  0.58586961  0.68753571    -0.18700
C1350       C  0.20204312  0.54576661  0.67967946     0.09700
S1351       S  0.14516064  0.61006213  0.72749301    -0.33700
S1352       S  0.22536417  0.52184785  0.66086896    -0.33700
H1353       H  0.20023035  0.98104975  0.67211351     0.27700
H1354       H  0.17414328  0.65077446  0.72272017     0.27700
H1355       H  0.11132829  0.53207271  0.70321861     0.18300
H1356       H  0.25903706  0.60080136  0.68351776     0.18300
C1357       C  0.37663989  0.94079863  0.36661312    -0.07500
C1358       C  0.33583827  0.93018942  0.36386732    -0.18700
C1359       C  0.30627545  0.89028102  0.35816303     0.09700
C1360       C  0.31796978  0.86075267  0.35506914    -0.07500
C1361       C  0.35869912  0.87137609  0.35813695    -0.18700
C1362       C  0.38827732  0.91129034  0.36335794     0.09700
S1363       S  0.25418153  0.87856946  0.35532887    -0.33700
S1364       S  0.44055498  0.92316657  0.36445520    -0.33700
H1365       H  0.45726015  0.96353625  0.35545955     0.27700
H1366       H  0.23673218  0.83747331  0.36270613     0.27700
H1367       H  0.32679923  0.95268862  0.36723979     0.18300
H1368       H  0.36790632  0.84903745  0.35457081     0.18300
C1369       C  0.45146237  0.61305103  0.19436896    -0.07500
C1370       C  0.41269207  0.58835762  0.18342329    -0.18700
C1371       C  0.40058381  0.54902719  0.17506061     0.09700
C1372       C  0.42731651  0.53387310  0.17895822    -0.07500
C1373       C  0.46634306  0.55884537  0.18954987    -0.18700
C1374       C  0.47853317  0.59825148  0.19777005     0.09700
S1375       S  0.35148936  0.52048680  0.15872878    -0.33700
S1376       S  0.02842253  0.62670516  0.21410079    -0.33700
H1377       H  0.01749751  0.64658728  0.23383314     0.27700
H1378       H  0.36078509  0.99706397  0.14082652     0.27700
H1379       H  0.39186776  0.59984685  0.18136487     0.18300
H1380       H  0.48715036  0.54736212  0.19173917     0.18300
C1381       C  0.12492529  0.63410944  0.36773182    -0.07500
C1382       C  0.08898271  0.61750859  0.35240570    -0.18700
C1383       C  0.07272235  0.64145187  0.34444682     0.09700
C1384       C  0.09342679  0.68283824  0.35165097    -0.07500
C1385       C  0.12910917  0.69936883  0.36728397    -0.18700
C1386       C  0.14496266  0.67519963  0.37573516     0.09700
S1387       S  0.02630782  0.61780716  0.32451955    -0.33700
S1388       S  0.18956244  0.69806709  0.39753528    -0.33700
H1389       H  0.20485578  0.67287186  0.38957291     0.27700
H1390       H  0.01084378  0.64176119  0.33489528     0.27700
H1391       H  0.07295318  0.58548733  0.34731522     0.18300
H1392       H  0.14510638  0.73138711  0.37235743     0.18300
C1393       C  0.28623877  0.96382072  0.03271189    -0.07500
C1394       C  0.31749415  0.00367347  0.02817892    -0.18700
C1395       C  0.30923543  0.53419099  0.02322706     0.09700
C1396       C  0.26832773  0.52441261  0.02169700    -0.07500
C1397       C  0.23647527  0.98489080  0.02661643    -0.18700
C1398       C  0.24533026  0.95428796  0.03180965     0.09700
S1399       S  0.35092629  0.58536177  0.01968174    -0.33700
S1400       S  0.20318396  0.90337198  0.03578189    -0.33700
H1401       H  0.22348966  0.88393674  0.02528323     0.27700
H1402       H  0.32924545  0.60434365  0.02832826     0.27700
H1403       H  0.34896165  0.01133711  0.03002975     0.18300
H1404       H  0.20564644  0.47684010  0.02446471     0.18300
C1405       C  0.25326366  0.69963882  0.50800077    -0.07500
C1406       C  0.29246314  0.72253302  0.51873393    -0.18700
C1407       C  0.30645059  0.76172604  0.52795761     0.09700
C1408       C  0.28106061  0.77858988  0.52532031    -0.07500
C1409       C  0.24213917  0.75606073  0.51396727    -0.18700
C1410       C  0.22801669  0.71661819  0.50483653     0.09700
S1411       S  0.35603100  0.78769731  0.54395383    -0.33700
S1412       S  0.17817175  0.69026217  0.48919963    -0.33700
H1413       H  0.18334144  0.66232576  0.47336105     0.27700
H1414       H  0.34653368  0.80748205  0.56462247     0.27700
H1415       H  0.31199258  0.70945690  0.52036512     0.18300
H1416       H  0.22259316  0.76912702  0.51255895     0.18300
C1417       C  0.45141758  0.79281839  0.69865650    -0.07500
C1418       C  0.48187105  0.83356729  0.69693126    -0.18700
C1419       C  0.47193850  0.86340731  0.69162836     0.09700
C1420       C  0.43097555  0.85194361  0.68728621    -0.07500
C1421       C  0.40044251  0.81131697  0.68969817    -0.18700
C1422       C  0.41030570  0.78149943  0.69517170     0.09700
S1423       S  0.01209016  0.91419620  0.69118021    -0.33700
S1424       S  0.36943031  0.72953882  0.69669640    -0.33700
H1425       H  0.39270027  0.71213731  0.68829403     0.27700
H1426       H  0.48780910  0.93219656  0.69840152     0.27700
H1427       H  0.01281062  0.84084335  0.70026032     0.18300
H1428       H  0.36901489  0.80249518  0.68569094     0.18300
C1429       C  0.09023582  0.86427392  0.84459565    -0.07500
C1430       C  0.12750292  0.88526581  0.85820014    -0.18700
C1431       C  0.14230768  0.92504530  0.86653039     0.09700
C1432       C  0.11928165  0.94388051  0.86078932    -0.07500
C1433       C  0.08195335  0.92285402  0.84708763    -0.18700
C1434       C  0.06722961  0.88293637  0.83864471     0.09700
S1435       S  0.18913781  0.94896939  0.88600227    -0.33700
S1436       S  0.01984731  0.85625674  0.81984312    -0.33700
H1437       H  0.00879603  0.88622843  0.82250196     0.27700
H1438       H  0.20353332  0.98819242  0.87559495     0.27700
H1439       H  0.14521730  0.87063913  0.86212820     0.18300
H1440       H  0.06422263  0.93752378  0.84353578     0.18300
C1441       C  0.17398475  0.59186704  0.17444631    -0.07500
C1442       C  0.16385832  0.57275040  0.20014438    -0.18700
C1443       C  0.18467873  0.55431306  0.21029593     0.09700
C1444       C  0.21757932  0.55718902  0.19503369    -0.07500
C1445       C  0.22752217  0.57588827  0.16919389    -0.18700
C1446       C  0.20575354  0.59316418  0.15856638     0.09700
S1447       S  0.16689682  0.52620642  0.24221889    -0.33700
S1448       S  0.22025142  0.61665291  0.12493353    -0.33700
H1449       H  0.20755258  0.64510234  0.12919896     0.27700
H1450       H  0.17994395  0.49837004  0.23637276     0.27700
H1451       H  0.13820963  0.57023292  0.21159637     0.18300
H1452       H  0.25312482  0.57825958  0.15777263     0.18300
C1453       C  0.14622790  0.92019294  0.34743605    -0.07500
C1454       C  0.13898458  0.90521946  0.37438493    -0.18700
C1455       C  0.10028918  0.88831335  0.38550591     0.09700
C1456       C  0.06846343  0.88601612  0.36897946    -0.07500
C1457       C  0.07589749  0.90127636  0.34208193    -0.18700
C1458       C  0.11488852  0.91963660  0.33142668     0.09700
S1459       S  0.09353735  0.86990934  0.42063300    -0.33700
S1460       S  0.12329015  0.94396717  0.29809324    -0.33700
H1461       H  0.16361356  0.97433704  0.30348474     0.27700
H1462       H  0.05365973  0.83771110  0.41673367     0.27700
H1463       H  0.16321242  0.90551001  0.38643322     0.18300
H1464       H  0.05176068  0.90110991  0.32999414     0.18300
C1465       C  0.31318291  0.74741144  0.01713473    -0.07500
C1466       C  0.29023024  0.70880775  0.02865036    -0.18700
C1467       C  0.25084703  0.69534620  0.03761592     0.09700
C1468       C  0.23429468  0.72091075  0.03422199    -0.07500
C1469       C  0.25727391  0.75949184  0.02273388    -0.18700
C1470       C  0.29646108  0.77278885  0.01355070     0.09700
S1471       S  0.22394010  0.64584804  0.05340765    -0.33700
S1472       S  0.32273981  0.82157719  0.99665428    -0.33700
H1473       H  0.34390338  0.81170817  0.97728633     0.27700
H1474       H  0.19866146  0.65306851  0.07073643     0.27700
H1475       H  0.30303186  0.68908472  0.03050480     0.18300
H1476       H  0.24435120  0.77907442  0.02059035     0.18300
C1477       C  0.49832915  0.75048360  0.51377959    -0.07500
C1478       C  0.04021822  0.78185779  0.51640460    -0.18700
C1479       C  0.06990781  0.77173394  0.52225355     0.09700
C1480       C  0.05854176  0.73053062  0.52482745    -0.07500
C1481       C  0.01802388  0.70023719  0.52117467    -0.18700
C1482       C  0.48717600  0.70936349  0.51629914     0.09700
S1483       S  0.12174540  0.81237419  0.52581861    -0.33700
S1484       S  0.43518576  0.66861402  0.51419228    -0.33700
H1485       H  0.41790045  0.69142090  0.52383723     0.27700
H1486       H  0.13996686  0.78928691  0.51893445     0.27700
H1487       H  0.04903377  0.81341867  0.51341006     0.18300
H1488       H  0.00902913  0.66866816  0.52440780     0.18300
C1489       C  0.38358211  0.89086908  0.86138506    -0.07500
C1490       C  0.34434828  0.86000174  0.85470906    -0.18700
C1491       C  0.31397195  0.86920090  0.84910889     0.09700
C1492       C  0.32319827  0.90997286  0.85016755    -0.07500
C1493       C  0.36245011  0.94069476  0.85694942    -0.18700
C1494       C  0.39297344  0.93161745  0.86180303     0.09700
S1495       S  0.26397128  0.82782555  0.84105072    -0.33700
S1496       S  0.44380159  0.97331125  0.86731286    -0.33700
H1497       H  0.46381481  0.95345739  0.85701374     0.27700
H1498       H  0.24267428  0.84631765  0.85137530     0.27700
H1499       H  0.33688044  0.82855820  0.85513654     0.18300
H1500       H  0.37011997  0.97219501  0.85656465     0.18300
C1501       C  0.48268579  0.57566054  0.68889426    -0.07500
C1502       C  0.46007899  0.53695451  0.70044194    -0.18700
C1503       C  0.42042603  0.52294819  0.70932028     0.09700
C1504       C  0.40295122  0.54755356  0.70503888    -0.07500
C1505       C  0.42561769  0.58617688  0.69361766    -0.18700
C1506       C  0.46552387  0.60071260  0.68575961     0.09700
S1507       S  0.39420475  0.47412096  0.72611106    -0.33700
S1508       S  0.49203405  0.65026627  0.67017407    -0.33700
H1509       H  0.52736583  0.66337262  0.68605906     0.27700
H1510       H  0.36987977  0.48259089  0.74355199     0.27700
H1511       H  0.47330568  0.51762059  0.70235716     0.18300
H1512       H  0.41220960  0.60529069  0.69111761     0.18300
C1513       C  0.79190700  0.49783484  0.71465680     0.78800
N1514       N  0.82862363  0.00782485  0.70375726    -0.79500
C1515       C  0.86314281  0.03640226  0.71575754     0.81300
N1516       N  0.86176794  0.05534969  0.73866344    -0.79400
C1517       C  0.82618467  0.04615968  0.75036276     0.81400
N1518       N  0.79050688  0.01640521  0.73877996    -0.81200
C1519       C  0.59025240  0.13215163  0.66916683     0.78800
N1520       N  0.55623746  0.11622980  0.68488903    -0.79500
C1521       C  0.52056180  0.08604235  0.67517193     0.81300
N1522       N  0.51814844  0.07118964  0.64959195    -0.79400
C1523       C  0.55130614  0.08562058  0.63347902     0.81400
N1524       N  0.58780510  0.11677423  0.64304385    -0.81200
C1525       C  0.77490473  0.47003903  0.83275792     0.78800
N1526       N  0.79475499  0.45458622  0.84713086    -0.79500
C1527       C  0.79753111  0.42297353  0.83713080     0.81300
N1528       N  0.78153899  0.40721473  0.81233843    -0.79400
C1529       C  0.76148392  0.42131147  0.79740679     0.81400
N1530       N  0.75812522  0.45337708  0.80740478    -0.81200
C1531       C  0.93953160  0.33737408  0.87802878     0.78800
N1532       N  0.95511300  0.35396855  0.90354736    -0.79500
C1533       C  0.94879866  0.38402441  0.91389547     0.81300
N1534       N  0.92691797  0.39619182  0.89924510    -0.79400
C1535       C  0.91201666  0.38044951  0.87426268     0.81400
N1536       N  0.91781608  0.35089579  0.86378924    -0.81200
C1537       C  0.94344179  0.30564632  0.49905863     0.78800
N1538       N  0.96588159  0.29225483  0.51250767    -0.79500
C1539       C  0.97051405  0.26212502  0.50181329     0.81300
N1540       N  0.95365402  0.24568129  0.47733008    -0.79400
C1541       C  0.93125653  0.25803505  0.46330847     0.81400
N1542       N  0.92610146  0.28862695  0.47397058    -0.81200
C1543       C  0.60706372  0.17085705  0.54433368     0.78800
N1544       N  0.62126867  0.18656361  0.57019710    -0.79500
C1545       C  0.61659511  0.21789033  0.57988172     0.81300
N1546       N  0.59793253  0.23265231  0.56406093    -0.79400
C1547       C  0.58417137  0.21758125  0.53871775     0.81400
N1548       N  0.58804474  0.18640052  0.52905991    -0.81200
C1549       C  0.92147162  0.30191254  0.00047027     0.78800
N1550       N  0.88638670  0.28759906  0.01492668    -0.79500
C1551       C  0.85122724  0.25697688  0.00484633     0.81300
N1552       N  0.85024631  0.24068074  0.98009946    -0.79400
C1553       C  0.88418103  0.25416294  0.96502724     0.81400
N1554       N  0.92035064  0.28535279  0.97497293    -0.81200
C1555       C  0.62437357  0.16728982  0.04733451     0.78800
N1556       N  0.62351599  0.18527959  0.07187674    -0.79500
C1557       C  0.65918511  0.21651704  0.08249496     0.81300
N1558       N  0.69427357  0.22826641  0.06913156    -0.79400
C1559       C  0.69505570  0.21038464  0.04550053     0.81400
N1560       N  0.66052491  0.18008034  0.03466155    -0.81200
C1561       C  0.95844672  0.33467598  0.38048880     0.78800
N1562       N  0.99493735  0.34592515  0.36872765    -0.79500
C1563       C  0.52932366  0.37327025  0.38087608     0.81300
N1564       N  0.52808205  0.39055382  0.40464175    -0.79400
C1565       C  0.99310904  0.38151871  0.41677943     0.81400
N1566       N  0.95732764  0.35232247  0.40506166    -0.81200
C1567       C  0.75606286  0.47090339  0.33303436     0.78800
N1568       N  0.75516397  0.45373429  0.30781825    -0.79500
C1569       C  0.71859048  0.42422753  0.29716988     0.81300
N1570       N  0.68419408  0.41365839  0.31093443    -0.79400
C1571       C  0.68492703  0.43082260  0.33523453     0.81400
N1572       N  0.72053682  0.45879086  0.34651222    -0.81200
C1573       C  0.61306552  0.14132150  0.16303240     0.78800
N1574       N  0.63824671  0.13007486  0.17489491    -0.79500
C1575       C  0.64570860  0.10287642  0.16243407     0.81300
N1576       N  0.62715089  0.08538814  0.13870597    -0.79400
C1577       C  0.60124360  0.09482625  0.12658294     0.81400
N1578       N  0.59433219  0.12372154  0.13835792    -0.81200
C1579       C  0.77288835  0.50459134  0.21158846     0.78800
N1580       N  0.75089447  0.01767758  0.19771604    -0.79500
C1581       C  0.74397659  0.04627966  0.20847522     0.81300
N1582       N  0.75963241  0.06302023  0.23307970    -0.79400
C1583       C  0.78224821  0.05155310  0.24755552     0.81400
N1584       N  0.78874833  0.02154652  0.23730956    -0.81200
C1585       C  0.53690132  0.25522557  0.83148746     0.78800
N1586       N  0.55009758  0.29125592  0.84441259    -0.79500
C1587       C  0.57975619  0.32580883  0.83322116     0.81300
N1588       N  0.59649401  0.32514125  0.80904049    -0.79400
C1589       C  0.58440543  0.29005239  0.79562206     0.81400
N1590       N  0.55388288  0.25445529  0.80655317    -0.81200
C1591       C  0.67166688  0.05234533  0.87796957     0.78800
N1592       N  0.65561007  0.05075426  0.90373622    -0.79500
C1593       C  0.62512628  0.01429756  0.91378602     0.81300
N1594       N  0.61343947  0.48049641  0.89892835    -0.79400
C1595       C  0.62936961  0.48203464  0.87392514     0.81400
N1596       N  0.65737287  0.01755270  0.86323815    -0.81200
C1597       C  0.87376357  0.40295997  0.66817336     0.78800
N1598       N  0.88980427  0.41725144  0.64235979    -0.79500
C1599       C  0.92148711  0.41282149  0.63285126     0.81300
N1600       N  0.93601740  0.39401404  0.64882559    -0.79400
C1601       C  0.92045941  0.38014192  0.67409133     0.81400
N1602       N  0.88921603  0.38403974  0.68352092    -0.81200
C1603       C  0.50728430  0.23924019  0.71330161     0.78800
N1604       N  0.99343798  0.26180062  0.69981059    -0.79500
C1605       C  0.96302359  0.26603013  0.71044962     0.81300
N1606       N  0.94686324  0.24952490  0.73498502    -0.79400
C1607       C  0.95979576  0.22779302  0.74913183     0.81400
N1608       N  0.99061806  0.22290963  0.73854952    -0.81200
C1609       C  0.70259104  0.08899622  0.49731933     0.78800
N1610       N  0.72078182  0.08781889  0.47296816    -0.79500
C1611       C  0.75061557  0.12354548  0.46157520     0.81300
N1612       N  0.76068605  0.15887348  0.47387957    -0.79400
C1613       C  0.74261537  0.15999492  0.49725154     0.81400
N1614       N  0.71384022  0.12545841  0.50905987    -0.81200
C1615       C  0.83716609  0.38540862  0.54484977     0.78800
N1616       N  0.82227957  0.35110580  0.52949969    -0.79500
C1617       C  0.79173813  0.31561959  0.53910213     0.81300
N1618       N  0.77608454  0.31344049  0.56431794    -0.79400
C1619       C  0.79001095  0.34662211  0.58024368     0.81400
N1620       N  0.82110756  0.38314850  0.57072124    -0.81200
C1621       C  0.70855088  0.07253967  0.00111718     0.78800
N1622       N  0.72455577  0.08656808  0.97528756    -0.79500
C1623       C  0.75684511  0.08288704  0.96619947     0.81300
N1624       N  0.77214381  0.06528059  0.98258392    -0.79400
C1625       C  0.75672686  0.05164365  0.00788892     0.81400
N1626       N  0.72476441  0.05471198  0.01691368    -0.81200
C1627       C  0.84130792  0.40886890  0.04667129     0.78800
N1628       N  0.82775499  0.43129003  0.03340482    -0.79500
C1629       C  0.79691030  0.43504553  0.04389007     0.81300
N1630       N  0.77996407  0.41730956  0.06803519    -0.79400
C1631       C  0.79248341  0.39497803  0.08190571     0.81400
N1632       N  0.82378636  0.39073689  0.07145113    -0.81200
C1633       C  0.67493008  0.07386527  0.38018607     0.78800
N1634       N  0.65781424  0.05607056  0.40518505    -0.79500
C1635       C  0.62663765  0.06048689  0.41581511     0.81300
N1636       N  0.61396843  0.08266250  0.40196065    -0.79400
C1637       C  0.63071322  0.10009866  0.37778935     0.81400
N1638       N  0.66110731  0.09604097  0.36693851    -0.81200
C1639       C  0.53979053  0.23678480  0.33355519     0.78800
N1640       N  0.55169355  0.21362256  0.34752879    -0.79500
C1641       C  0.57935963  0.20538294  0.33668040     0.81300
N1642       N  0.59639697  0.22075626  0.31205252    -0.79400
C1643       C  0.58615172  0.24463675  0.29778925     0.81400
N1644       N  0.55693563  0.25228584  0.30819312    -0.81200
C1645       C  0.50461666  0.22035441  0.21132852     0.78800
N1646       N  0.98843328  0.21988992  0.23665230    -0.79500
C1647       C  0.95714981  0.18369124  0.24637517     0.81300
N1648       N  0.94343183  0.15002119  0.23098109    -0.79400
C1649       C  0.95950435  0.15131053  0.20607947     0.81400
N1650       N  0.99013876  0.18654959  0.19622362    -0.81200
C1651       C  0.87262226  0.42330227  0.16625106     0.78800
N1652       N  0.89053290  0.42238729  0.14172604    -0.79500
C1653       C  0.92268158  0.45761182  0.13151532     0.81300
N1654       N  0.93568192  0.49257204  0.14533963    -0.79400
C1655       C  0.91794323  0.49369363  0.16898528     0.81400
N1656       N  0.88641786  0.45941778  0.17932156    -0.81200
C1657       C  0.77002879  0.25341209  0.33536100     0.78800
N1658       N  0.78931775  0.28801178  0.35053057    -0.79500
C1659       C  0.79325197  0.32310359  0.34083650     0.81300
N1660       N  0.77923835  0.32447470  0.31557086    -0.79400
C1661       C  0.76020075  0.29107737  0.29981572     0.81400
N1662       N  0.75548814  0.25497122  0.30954983    -0.81200
C1663       C  0.93356953  0.05106386  0.38037299     0.78800
N1664       N  0.91030476  0.01510536  0.36728559    -0.79500
C1665       C  0.90552059  0.48064454  0.37812985     0.81300
N1666       N  0.92290172  0.48108558  0.40240460    -0.79400
C1667       C  0.94592643  0.01557353  0.41612886     0.81400
N1668       N  0.95133805  0.05140363  0.40532376    -0.81200
C1669       C  0.76888057  0.21681170  0.71286117     0.78800
N1670       N  0.74508837  0.18060593  0.70025582    -0.79500
C1671       C  0.73895404  0.14590932  0.71204508     0.81300
N1672       N  0.75682761  0.14673460  0.73608885    -0.79400
C1673       C  0.78116538  0.18196687  0.74896641     0.81400
N1674       N  0.78700006  0.21764548  0.73770718    -0.81200
C1675       C  0.60486259  0.41840535  0.66696649     0.78800
N1676       N  0.62575116  0.45291603  0.68192574    -0.79500
C1677       C  0.63306921  0.48883592  0.67162692     0.81300
N1678       N  0.61932364  0.49107130  0.64646998    -0.79400
C1679       C  0.59763793  0.45750183  0.63121406     0.81400
N1680       N  0.59071002  0.42063184  0.64115136    -0.81200
C1681       C  0.92138510  0.06752547  0.49895565     0.78800
N1682       N  0.92291180  0.08507724  0.47369114    -0.79500
C1683       C  0.88781574  0.08114719  0.46250742     0.81300
N1684       N  0.85268569  0.05984159  0.47603901    -0.79400
C1685       C  0.85089178  0.04263469  0.50048670     0.81400
N1686       N  0.88500046  0.04621471  0.51196473    -0.81200
C1687       C  0.62364905  0.40291240  0.54482294     0.78800
N1688       N  0.65920153  0.42442692  0.53086939    -0.79500
C1689       C  0.69423366  0.42876708  0.54123692     0.81300
N1690       N  0.69424944  0.41208787  0.56566416    -0.79400
C1691       C  0.66003588  0.39096692  0.58024415     0.81400
N1692       N  0.62410996  0.38642887  0.57010916    -0.81200
C1693       C  0.78920424  0.23486604  0.21034110     0.78800
N1694       N  0.79155975  0.22112311  0.23624644    -0.79500
C1695       C  0.82817342  0.22673361  0.24583087     0.81300
N1696       N  0.86152873  0.24670565  0.23004217    -0.79400
C1697       C  0.85927970  0.26010382  0.20472978     0.81400
N1698       N  0.82349619  0.25430343  0.19495126    -0.81200
C1699       C  0.58676154  0.39970402  0.16545577     0.78800
N1700       N  0.55039555  0.37666516  0.17810089    -0.79500
C1701       C  0.51598923  0.37281978  0.16708821     0.81300
N1702       N  0.51724453  0.39135660  0.14326153    -0.79400
C1703       C  0.55249154  0.41407504  0.12989123     0.81400
N1704       N  0.58787781  0.41821908  0.14072026    -0.81200
C1705       C  0.93928925  0.08680073  0.00041872     0.78800
N1706       N  0.96156671  0.12178931  0.01467281    -0.79500
C1707       C  0.96913469  0.15756286  0.00390149     0.81300
N1708       N  0.95398350  0.15908657  0.97913069    -0.79400
C1709       C  0.93109233  0.12506218  0.96457599     0.81400
N1710       N  0.92408705  0.08838408  0.97487744    -0.81200
C1711       C  0.60261231  0.38511342  0.04658130     0.78800
N1712       N  0.58162820  0.34949034  0.03278027    -0.79500
C1713       C  0.57628675  0.31473470  0.04397344     0.81300
N1714       N  0.59196463  0.31497223  0.06885736    -0.79400
C1715       C  0.61357580  0.34971177  0.08299593     0.81400
N1716       N  0.61867060  0.38536120  0.07217270    -0.81200
C1717       C  0.75467231  0.23421880  0.83302959     0.78800
N1718       N  0.75355014  0.24860260  0.80713236    -0.79500
C1719       C  0.71782168  0.24487096  0.79744788     0.81300
N1720       N  0.68431688  0.22665803  0.81321956    -0.79400
C1721       C  0.68529751  0.21268864  0.83856154     0.81400
N1722       N  0.72014847  0.21600502  0.84828212    -0.81200
C1723       C  0.95750454  0.07024282  0.87739063     0.78800
N1724       N  0.95852548  0.05451230  0.90281237    -0.79500
C1725       C  0.99456274  0.05910919  0.91265265     0.81300
N1726       N  0.52866847  0.07971065  0.89772602    -0.79400
C1727       C  0.52805811  0.09548048  0.87301097     0.81400
N1728       N  0.99263430  0.09105999  0.86288748    -0.81200
O1729       O  0.86512061  0.08881286  0.78719335    -0.87900
O1730       O  0.73207104  0.11635765  0.88543020    -0.88100
O1731       O  0.77219144  0.03130135  0.82583843    -0.89700
O1732       O  0.78265631  0.14306762  0.78652456    -0.88500
O1733       O  0.83168360  0.21044478  0.78354632    -0.88100
O1734       O  0.80093067  0.02359513  0.86556627    -0.89400
O1735       O  0.72427341  0.08160903  0.84493331    -0.87900
O1736       O  0.79768712  0.07019184  0.78383509    -0.87500
Zr1737     Zr  0.79144819  0.10328605  0.82424783     2.84300
O1738       O  0.80649507  0.16679874  0.84007010    -1.09500
O1739       O  0.84211971  0.09013299  0.84046529    -1.10200
C1740       C  0.82926199  0.06926334  0.77560329     1.05200
C1741       C  0.71088657  0.08706483  0.86835786     1.05200
C1742       C  0.78153522  0.01038050  0.84224278     1.08100
C1743       C  0.79950318  0.17884388  0.77494198     1.05900
H1744       H  0.76898529  0.07910785  0.88022050     0.31500
O1745       O  0.79305567  0.10192615  0.87281650    -1.30400
H1746       H  0.85582879  0.15314229  0.78842575     0.31200
O1747       O  0.85576759  0.15319761  0.80840391    -1.32100
O1748       O  0.84342445  0.21329412  0.92754053    -0.87900
O1749       O  0.97743419  0.19008192  0.82580734    -0.89400
O1750       O  0.79673236  0.08136401  0.92843315    -0.88000
O1751       O  0.81868735  0.23775381  0.82617497    -0.88000
O1752       O  0.91984399  0.22734771  0.78675228    -0.87700
O1753       O  0.89358852  0.06676437  0.88523003    -0.87500
O1754       O  0.92988636  0.16605560  0.92754954    -0.87900
O1755       O  0.94358823  0.27725675  0.88543966    -0.87400
O1756       O  0.88354287  0.09763503  0.92861673    -0.88400
O1757       O  0.91617696  0.28479268  0.84496680    -0.87600
O1758       O  0.77431321  0.12741219  0.92883868    -0.88000
O1759       O  0.92794358  0.09370392  0.84459726    -0.87700
O1760       O  0.93782788  0.17808924  0.78405117    -0.87400
O1761       O  0.78219792  0.20870194  0.86574081    -0.87800
O1762       O  0.91198478  0.23573821  0.92857988    -0.88100
O1763       O  0.98532420  0.22715204  0.86515905    -0.89400
Zr1764     Zr  0.80527980  0.16592822  0.88835969     2.83100
Zr1765     Zr  0.90533132  0.13849205  0.82435049     2.83500
Zr1766     Zr  0.84327884  0.08951610  0.88873220     2.84100
Zr1767     Zr  0.87067835  0.21760134  0.82426976     2.83400
Zr1768     Zr  0.91990938  0.20411139  0.88854740     2.84200
O1769       O  0.91896149  0.20250068  0.84029595    -1.10000
O1770       O  0.85620290  0.15325612  0.90389313    -1.09500
C1771       C  0.87983331  0.23373893  0.93839597     1.05200
C1772       C  0.99814518  0.22078784  0.84183545     1.07800
C1773       C  0.77655700  0.09766416  0.93913365     1.05400
C1774       C  0.78843280  0.22824348  0.84257608     1.05700
C1775       C  0.93869248  0.21030359  0.77534522     1.05300
C1776       C  0.92277199  0.07494875  0.86801600     1.04900
C1777       C  0.91409106  0.12967064  0.93831108     1.05300
C1778       C  0.93520639  0.29828033  0.86837989     1.04800
H1779       H  0.93013126  0.14044077  0.88003212     0.31500
O1780       O  0.90707152  0.14149386  0.87283507    -1.31100
H1781       H  0.86915616  0.24015280  0.88006479     0.31500
O1782       O  0.86794860  0.21609482  0.87275896    -1.32500
O1783       O  0.94958930  0.42561525  0.95107143    -0.87900
O1784       O  0.60782413  0.44988296  0.05213678    -0.88100
O1785       O  0.58385901  0.47352784  0.95088079    -0.89700
O1786       O  0.98538759  0.36251154  0.99287181    -0.88500
O1787       O  0.95068798  0.35488796  0.03338816    -0.88100
O1788       O  0.60577534  0.04184378  0.94994639    -0.89400
O1789       O  0.57787515  0.41237779  0.01304103    -0.87900
O1790       O  0.99636939  0.40409297  0.94972373    -0.87500
Zr1791     Zr  0.53577337  0.43588397  0.98976562     2.84300
O1792       O  0.53673930  0.43758888  0.03799599    -1.09500
O1793       O  0.52287463  0.48668077  0.97440877    -1.10200
C1794       C  0.96562424  0.40531728  0.94019536     1.05200
C1795       C  0.59766181  0.41906784  0.03619550     1.05200
C1796       C  0.60451882  0.50991082  0.94017212     1.08100
C1797       C  0.95604370  0.34142372  0.00994692     1.05900
H1798       H  0.61041665  0.50013199  0.99795157     0.31500
O1799       O  0.58617102  0.49869943  0.00516193    -1.30400
H1800       H  0.94872479  0.39972097  0.99845589     0.31200
O1801       O  0.97177837  0.42368892  0.00572820    -1.32100
O1802       O  0.59750927  0.05176280  0.09020033    -0.87900
O1803       O  0.93514655  0.02283254  0.99265489    -0.89400
O1804       O  0.64688388  0.07388620  0.99275629    -0.88000
O1805       O  0.01307673  0.41337131  0.09217137    -0.88000
O1806       O  0.90123053  0.40384051  0.05286132    -0.87700
O1807       O  0.53541311  0.05889011  0.95023706    -0.87500
O1808       O  0.55907838  0.10786751  0.05266791    -0.87900
O1809       O  0.96135501  0.99724888  0.09294402    -0.87400
O1810       O  0.59683603  0.11520350  0.01379787    -0.88400
O1811       O  0.94241158  0.42903369  0.09559373    -0.87600
O1812       O  0.65437389  0.04626398  0.03306571    -0.88000
O1813       O  0.96684544  0.01262623  0.94916285    -0.87700
O1814       O  0.89334639  0.43234016  0.01311911    -0.87400
O1815       O  0.58115847  0.46312031  0.09436877    -0.87800
O1816       O  0.54869730  0.07033956  0.09330299    -0.88100
O1817       O  0.96119293  0.05652163  0.03367088    -0.89400
Zr1818     Zr  0.58767961  0.50174873  0.05358141     2.83100
Zr1819     Zr  0.95924995  0.47369416  0.98993373     2.83500
Zr1820     Zr  0.57352015  0.05003207  0.98965040     2.84100
Zr1821     Zr  0.97317799  0.42212460  0.05427098     2.83400
Zr1822     Zr  0.50769628  0.03569451  0.05394164     2.84200
O1823       O  0.95970122  0.47264701  0.03824631    -1.10000
O1824       O  0.57169051  0.04914096  0.03782098    -1.09500
C1825       C  0.58136943  0.07156447  0.10145981     1.05200
C1826       C  0.94292491  0.05165312  0.01001536     1.07800
C1827       C  0.66808396  0.06580978  0.00990552     1.05400
C1828       C  0.54940463  0.43153463  0.10344557     1.05700
C1829       C  0.88037272  0.41349305  0.03657140     1.05300
C1830       C  0.49901167  0.04283569  0.93934867     1.04900
C1831       C  0.59013889  0.12839250  0.03690128     1.05300
C1832       C  0.94302829  0.46084410  0.10491180     1.04800
H1833       H  0.50940756  0.06028601  0.99812542     0.31500
O1834       O  0.51072264  0.03742244  0.00536209    -1.31100
H1835       H  0.52394783  0.48741644  0.08948997     0.31500
O1836       O  0.52340836  0.48703993  0.06952335    -1.32500
O1837       O  0.93053026  0.21784691  0.42560127    -0.87900
O1838       O  0.76838497  0.19048764  0.32704906    -0.88100
O1839       O  0.89302214  0.27595495  0.38567678    -0.89700
O1840       O  0.79268265  0.16294447  0.42478664    -0.88500
O1841       O  0.77408274  0.09557860  0.42760263    -0.88100
O1842       O  0.92995269  0.28410434  0.34619989    -0.89400
O1843       O  0.79538217  0.22487789  0.36771268    -0.87900
O1844       O  0.88161955  0.23639748  0.42800648    -0.87500
Zr1845     Zr  0.84177669  0.20373369  0.38756825     2.84300
O1846       O  0.79379268  0.14029998  0.37149174    -1.09500
O1847       O  0.90599897  0.21781893  0.37153905    -1.10200
C1848       C  0.91362736  0.23686305  0.43698199     1.05200
C1849       C  0.77611379  0.21936571  0.34440950     1.05200
C1850       C  0.92366160  0.29677627  0.36960689     1.08100
C1851       C  0.77322065  0.12697939  0.43611411     1.05900
H1852       H  0.84265276  0.22820971  0.33180215     0.31500
O1853       O  0.84434103  0.20551336  0.33902161    -1.30400
H1854       H  0.85698657  0.15432173  0.42332864     0.31200
O1855       O  0.85693324  0.15439071  0.40334630    -1.32100
O1856       O  0.78299492  0.09327356  0.28456447    -0.87900
O1857       O  0.94029559  0.11665445  0.38591856    -0.89400
O1858       O  0.86966095  0.22815178  0.28369250    -0.88000
O1859       O  0.73498593  0.06891250  0.38578894    -0.88000
O1860       O  0.84868832  0.08190949  0.42474550    -0.87700
O1861       O  0.98057726  0.24229019  0.32618847    -0.87500
O1862       O  0.91672451  0.14260666  0.28385261    -0.87900
O1863       O  0.82020083  0.03106897  0.32598851    -0.87400
O1864       O  0.93912009  0.21104466  0.28325127    -0.88400
O1865       O  0.78597908  0.02280789  0.36678244    -0.87600
O1866       O  0.80141034  0.18087221  0.28269612    -0.88000
O1867       O  0.98850535  0.21561734  0.36683370    -0.87700
O1868       O  0.91625402  0.13074783  0.42749114    -0.87400
O1869       O  0.72716990  0.09886223  0.34675404    -0.87800
O1870       O  0.83025844  0.07237288  0.28311739    -0.88100
O1871       O  0.91168240  0.08026375  0.34621261    -0.89400
Zr1872     Zr  0.79267205  0.14149756  0.32326551     2.83100
Zr1873     Zr  0.92149437  0.16974021  0.38737495     2.83500
Zr1874     Zr  0.90723908  0.21858749  0.32323612     2.84100
Zr1875     Zr  0.80749963  0.08987993  0.38738860     2.83400
Zr1876     Zr  0.86978267  0.10421884  0.32312620     2.84200
O1877       O  0.87097077  0.10573776  0.37131708    -1.10000
O1878       O  0.85649329  0.15480814  0.30788805    -1.09500
C1879       C  0.79924644  0.07318542  0.27369394     1.05200
C1880       C  0.93027248  0.08600750  0.36979353     1.07800
C1881       C  0.83323475  0.21140438  0.27275541     1.05400
C1882       C  0.71411440  0.07897988  0.36987177     1.05700
C1883       C  0.88472812  0.09870341  0.43618404     1.05300
C1884       C  0.00175539  0.23411211  0.34328214     1.04900
C1885       C  0.93703995  0.17904687  0.27316481     1.05300
C1886       C  0.79101265  0.00977997  0.34309142     1.04800
H1887       H  0.94388318  0.16820849  0.33151378     0.31500
O1888       O  0.91979987  0.16693809  0.33885309    -1.31100
H1889       H  0.78272469  0.06750129  0.33172456     0.31500
O1890       O  0.80571562  0.09169940  0.33892569    -1.32500
O1891       O  0.72568971  0.43977731  0.71925219    -0.87900
O1892       O  0.74914749  0.30509863  0.61770065    -0.88100
O1893       O  0.81252143  0.40476184  0.65997062    -0.89700
O1894       O  0.70061914  0.39035892  0.61773750    -0.88500
O1895       O  0.63221633  0.34368008  0.61626609    -0.88100
O1896       O  0.82032066  0.37831740  0.70078086    -0.89400
O1897       O  0.77110858  0.37345199  0.61688397    -0.87900
O1898       O  0.76358436  0.44679114  0.68053318    -0.87500
Zr1899     Zr  0.73938979  0.38135281  0.65681668     2.84300
O1900       O  0.68867045  0.31766103  0.64138877    -1.09500
O1901       O  0.73795713  0.38087614  0.70503215    -1.10200
C1902       C  0.75700185  0.46000458  0.70363646     1.05200
C1903       C  0.76945882  0.34156215  0.60696975     1.05200
C1904       C  0.83379996  0.39712549  0.67731406     1.08100
C1905       C  0.66424881  0.37425860  0.60670673     1.05900
H1906       H  0.77558561  0.33093063  0.66566659     0.31500
O1907       O  0.75140619  0.32966471  0.67287750    -1.30400
H1908       H  0.67558896  0.39197956  0.66491164     0.31200
O1909       O  0.67674664  0.36906160  0.67221191    -1.32100
O1910       O  0.65306822  0.19371499  0.66082591    -0.87900
O1911       O  0.62509224  0.32888483  0.75822246    -0.89400
O1912       O  0.77370549  0.28124684  0.71908103    -0.88000
O1913       O  0.61578187  0.25785257  0.61745790    -0.88000
O1914       O  0.60159452  0.35463449  0.65909826    -0.87700
O1915       O  0.76129481  0.38078451  0.75983140    -0.87500
O1916       O  0.67739544  0.24416287  0.75971093    -0.87900
O1917       O  0.56694637  0.23405785  0.71947748    -0.87400
O1918       O  0.74531254  0.29228959  0.76135242    -0.88400
O1919       O  0.55935722  0.26317539  0.67994317    -0.87600
O1920       O  0.74525924  0.24486100  0.67929378    -0.88000
O1921       O  0.71326129  0.40062108  0.76121315    -0.87700
O1922       O  0.62778887  0.38865584  0.69996723    -0.87400
O1923       O  0.66181970  0.23539249  0.61693943    -0.87800
O1924       O  0.61792251  0.18641361  0.70105243    -0.88100
O1925       O  0.60630574  0.26146094  0.76119608    -0.89400
Zr1926     Zr  0.70159787  0.26705134  0.65699386     2.83100
Zr1927     Zr  0.67394063  0.36773750  0.72067748     2.83500
Zr1928     Zr  0.75302428  0.33277508  0.72139034     2.84100
Zr1929     Zr  0.62493403  0.30486333  0.65663631     2.83400
Zr1930     Zr  0.63897282  0.25365199  0.72117975     2.84200
O1931       O  0.62575713  0.30420407  0.70485437    -1.10000
O1932       O  0.70247798  0.26869167  0.70534668    -1.09500
C1933       C  0.62397397  0.17256571  0.67803512     1.05200
C1934       C  0.60585269  0.29310981  0.76971129     1.07800
C1935       C  0.76441590  0.25108134  0.70265322     1.05400
C1936       C  0.63188242  0.23757446  0.60679984     1.05700
C1937       C  0.60925322  0.38353257  0.67637928     1.05300
C1938       C  0.74463515  0.40040988  0.77078462     1.04900
C1939       C  0.71364217  0.26094483  0.77073779     1.05300
C1940       C  0.54631152  0.24403017  0.70327625     1.04800
H1941       H  0.68841801  0.31817879  0.75683302     0.31500
O1942       O  0.68855313  0.31813300  0.73685528    -1.31100
H1943       H  0.61471003  0.23023482  0.66532988     0.31500
O1944       O  0.63738638  0.25460264  0.67256676    -1.32500
O1945       O  0.69880362  0.25782421  0.11984333    -0.87900
O1946       O  0.56536565  0.28395484  0.21926502    -0.88100
O1947       O  0.60491841  0.19931743  0.15870198    -0.89700
O1948       O  0.61461041  0.31042648  0.12053450    -0.88500
O1949       O  0.66334613  0.37793008  0.11804751    -0.88100
O1950       O  0.63534304  0.19169113  0.19756939    -0.89400
O1951       O  0.55771658  0.24934729  0.17873035    -0.87900
O1952       O  0.63107499  0.23855701  0.11737640    -0.87500
Zr1953     Zr  0.62477339  0.27118855  0.15791464     2.84300
O1954       O  0.64000442  0.33445337  0.17395800    -1.09500
O1955       O  0.67578269  0.25821567  0.17371396    -1.10200
C1956       C  0.66271109  0.23833552  0.10848878     1.05200
C1957       C  0.54419958  0.25481847  0.20207704     1.05200
C1958       C  0.61586786  0.17890102  0.17425699     1.08100
C1959       C  0.63125083  0.34637220  0.10925821     1.05900
H1960       H  0.60213430  0.24634313  0.21359578     0.31500
O1961       O  0.62629907  0.26924097  0.20640425    -1.30400
H1962       H  0.68901360  0.32080734  0.12213159     0.31200
O1963       O  0.68925005  0.32076159  0.14210323    -1.32100
O1964       O  0.67765177  0.38189602  0.26047453    -0.87900
O1965       O  0.81175664  0.35903167  0.15961055    -0.89400
O1966       O  0.62812078  0.24575929  0.26066912    -0.88000
O1967       O  0.65185258  0.40504947  0.15980272    -0.88000
O1968       O  0.75199541  0.39379114  0.11957826    -0.87700
O1969       O  0.72613325  0.23305779  0.21884074    -0.87500
O1970       O  0.76160149  0.33218220  0.26179618    -0.87900
O1971       O  0.77643839  0.44419487  0.21930137    -0.87400
O1972       O  0.71467692  0.26392263  0.26273322    -0.88400
O1973       O  0.74968375  0.45202024  0.17860280    -0.87600
O1974       O  0.60762697  0.29324853  0.26245721    -0.88000
O1975       O  0.76024376  0.25988468  0.17809591    -0.87700
O1976       O  0.77141492  0.34556556  0.11717495    -0.87400
O1977       O  0.61441000  0.37482487  0.19884018    -0.87800
O1978       O  0.74594450  0.40298877  0.26211867    -0.88100
O1979       O  0.81977177  0.39520691  0.19941461    -0.89400
Zr1980     Zr  0.63865056  0.33318938  0.22220287     2.83100
Zr1981     Zr  0.73932357  0.30630726  0.15774446     2.83500
Zr1982     Zr  0.67659355  0.25666187  0.22190413     2.84100
Zr1983     Zr  0.70402696  0.38498366  0.15792472     2.83400
Zr1984     Zr  0.75356208  0.37110793  0.22222035     2.84200
O1985       O  0.75275849  0.37016920  0.17388410    -1.10000
O1986       O  0.68964677  0.32029489  0.23738898    -1.09500
C1987       C  0.71407301  0.40219305  0.27133805     1.05200
C1988       C  0.83285478  0.38927052  0.17603918     1.07800
C1989       C  0.60820427  0.26203453  0.27172935     1.05400
C1990       C  0.62094853  0.39472616  0.17575949     1.05700
C1991       C  0.77132906  0.37720559  0.10817190     1.05300
C1992       C  0.75490832  0.24071025  0.20141980     1.04900
C1993       C  0.74498175  0.29580453  0.27276270     1.05300
C1994       C  0.76841790  0.46537031  0.20212110     1.04800
H1995       H  0.76368908  0.30712041  0.21364082     0.31500
O1996       O  0.74088003  0.30853580  0.20635507    -1.31100
H1997       H  0.70262390  0.40712085  0.21360409     0.31500
O1998       O  0.70143498  0.38299591  0.20640533    -1.32500
O1999       O  0.00970243  0.04557008  0.59562314    -0.87900
O2000       O  0.64410393  0.02308252  0.49257813    -0.88100
O2001       O  0.59749101  0.99918901  0.59432034    -0.89700
O2002       O  0.60941579  0.11001718  0.55247391    -0.88500
O2003       O  0.58285277  0.11771245  0.51165211    -0.88100
O2004       O  0.55006293  0.43092737  0.59528986    -0.89400
O2005       O  0.65176587  0.06073006  0.53158426    -0.87900
O2006       O  0.57821909  0.06781635  0.59612963    -0.87500
Zr2007     Zr  0.58646480  0.03708532  0.55558613     2.84300
O2008       O  0.58540524  0.03548508  0.50728640    -1.09500
O2009       O  0.52261301  0.48633121  0.57088222    -1.10200
C2010       C  0.54627041  0.06591795  0.60632966     1.05200
C2011       C  0.66466415  0.05420361  0.50831339     1.05200
C2012       C  0.58109482  0.46263546  0.60486103     1.08100
C2013       C  0.60157411  0.13115116  0.53514747     1.05900
H2014       H  0.59649590  0.47339930  0.54674303     0.31500
O2015       O  0.57345949  0.47453065  0.53955118    -1.30400
H2016       H  0.53565063  0.07305780  0.54717505     0.31200
O2017       O  0.53435229  0.04895178  0.53983888    -1.32100
O2018       O  0.53170895  0.42216658  0.45387944    -0.87900
O2019       O  0.89800159  0.44911344  0.55290032    -0.89400
O2020       O  0.55955051  0.39941374  0.55215243    -0.88000
O2021       O  0.58575268  0.05926692  0.45326958    -0.88000
O2022       O  0.98590663  0.07197451  0.49363396    -0.87700
O2023       O  0.96214460  0.41271277  0.59506132    -0.87500
O2024       O  0.93790268  0.36506689  0.49300306    -0.87900
O2025       O  0.94754967  0.47634217  0.45356191    -0.87400
O2026       O  0.96665131  0.35724119  0.53270907    -0.88400
O2027       O  0.99621131  0.04341517  0.45114346    -0.87600
O2028       O  0.59448983  0.42681308  0.51176965    -0.88000
O2029       O  0.93994187  0.45890604  0.59606924    -0.87700
O2030       O  0.94783836  0.04119317  0.53239401    -0.87400
O2031       O  0.60487162  0.01082494  0.45098002    -0.87800
O2032       O  0.96475989  0.40467062  0.45076617    -0.88100
O2033       O  0.89032120  0.41498209  0.51211371    -0.89400
Zr2034     Zr  0.57186859  0.97148463  0.49133227     2.83100
Zr2035     Zr  0.97122705  0.49916824  0.55589810     2.83500
Zr2036     Zr  0.50962882  0.42269796  0.55547006     2.84100
Zr2037     Zr  0.53705819  0.05055571  0.49119171     2.83400
Zr2038     Zr  0.95757563  0.43705625  0.49124908     2.84200
O2039       O  0.97276758  0.50031867  0.50753118    -1.10000
O2040       O  0.50837891  0.42349536  0.50717047    -1.09500
C2041       C  0.49581054  0.40300145  0.44235005     1.05200
C2042       C  0.87681441  0.42008714  0.53561578     1.07800
C2043       C  0.58900378  0.40776347  0.53514666     1.05400
C2044       C  0.60520336  0.04266665  0.44201010     1.05700
C2045       C  0.95491985  0.06164002  0.50946735     1.05300
C2046       C  0.94180791  0.42867053  0.60596769     1.04900
C2047       C  0.94769517  0.34435722  0.50926485     1.05300
C2048       C  0.96431641  0.51229829  0.44219187     1.04800
H2049       H  0.93531153  0.41257618  0.54711813     0.31500
O2050       O  0.95933550  0.43551294  0.53982628    -1.31100
H2051       H  0.52195657  0.98617176  0.45539560     0.31500
O2052       O  0.52201790  0.48633548  0.47518974    -1.32500
C2053       C  0.56698712  0.12374423  0.86082783    -0.07500
C2054       C  0.57542966  0.16350974  0.85623330    -0.18700
C2055       C  0.61512382  0.19452733  0.85183904     0.09700
C2056       C  0.64666402  0.18530239  0.85140433    -0.07500
C2057       C  0.63824521  0.14562609  0.85625424    -0.18700
C2058       C  0.59861172  0.11463460  0.86050836     0.09700
S2059       S  0.62399439  0.24537464  0.84752684    -0.33700
S2060       S  0.58993722  0.06383789  0.86461871    -0.33700
H2061       H  0.54972970  0.04392380  0.85476464     0.27700
H2062       H  0.66447948  0.26511238  0.85686818     0.27700
H2063       H  0.55138306  0.17084589  0.85759799     0.18300
H2064       H  0.66224063  0.13820496  0.85489632     0.18300
C2065       C  0.54823006  0.27591579  0.03205383    -0.07500
C2066       C  0.56413948  0.25333164  0.02035042    -0.18700
C2067       C  0.53855394  0.21314965  0.01280911     0.09700
C2068       C  0.99703913  0.19539528  0.01700796    -0.07500
C2069       C  0.48069034  0.21792035  0.02954819    -0.18700
C2070       C  0.50625213  0.25804824  0.03707293     0.09700
S2071       S  0.56093311  0.18723073  0.99539828    -0.33700
S2072       S  0.48397805  0.28387640  0.05468895    -0.33700
H2073       H  0.50736611  0.32115210  0.04126925     0.27700
H2074       H  0.03571647  0.14887817  0.00634807     0.27700
H2075       H  0.59663229  0.26697070  0.01736910     0.18300
H2076       H  0.94806157  0.20389731  0.03094515     0.18300
C2077       C  0.89694714  0.28938203  0.19193918    -0.07500
C2078       C  0.91850124  0.27532047  0.17665212    -0.18700
C2079       C  0.95885448  0.30160090  0.16960843     0.09700
C2080       C  0.97769869  0.34232610  0.17847404    -0.07500
C2081       C  0.95583704  0.35648671  0.19327476    -0.18700
C2082       C  0.91546083  0.33034618  0.20004944     0.09700
S2083       S  0.49063978  0.28136057  0.15549566    -0.33700
S2084       S  0.88961415  0.35021719  0.22035386    -0.33700
H2085       H  0.85293563  0.32985856  0.20554900     0.27700
H2086       H  0.51501925  0.31530876  0.13894999     0.27700
H2087       H  0.90422826  0.24360009  0.17093167     0.18300
H2088       H  0.97007786  0.38816895  0.19910327     0.18300
C2089       C  0.81091759  0.01514180  0.51149872    -0.07500
C2090       C  0.78089345  0.48827510  0.49247338    -0.16900
C2091       C  0.74225925  0.45973104  0.50138988     0.09700
C2092       C  0.73340786  0.45781132  0.52971463    -0.07500
C2093       C  0.76292875  0.48492754  0.54839808    -0.18700
C2094       C  0.80114830  0.51403832  0.53937268     0.09700
S2095       S  0.70652956  0.42600983  0.47597310    -0.33700
S2096       S  0.83615645  0.05124997  0.56425990    -0.33700
H2097       H  0.85469438  0.08362028  0.54538872     0.27700
H2098       H  0.68836227  0.39190734  0.49339915     0.27700
H2099       H  0.78802872  0.98945289  0.47095819     0.18300
H2100       H  0.75570208  0.48432122  0.57014224     0.18300
C2101       C  0.66078703  0.02643176  0.68552085    -0.07500
C2102       C  0.64429916  0.04702183  0.69931869    -0.18700
C2103       C  0.66895836  0.08716906  0.70733983     0.09700
C2104       C  0.71065607  0.10687954  0.70065907    -0.07500
C2105       C  0.72718142  0.08598022  0.68733647    -0.18700
C2106       C  0.70264211  0.04577538  0.67968432     0.09700
S2107       S  0.64530496  0.11028293  0.72681279    -0.33700
S2108       S  0.72614119  0.02186714  0.66105820    -0.33700
H2109       H  0.70019312  0.48251643  0.66941877     0.27700
H2110       H  0.67588562  0.15093485  0.72445214     0.27700
H2111       H  0.61190559  0.03200699  0.70322309     0.18300
H2112       H  0.75952986  0.10097162  0.68324685     0.18300
C2113       C  0.87778780  0.44158959  0.36600056    -0.07500
C2114       C  0.83681638  0.43046981  0.36359884    -0.18700
C2115       C  0.80760190  0.39049932  0.35778354     0.09700
C2116       C  0.81983337  0.36146177  0.35422318    -0.07500
C2117       C  0.86077583  0.37262691  0.35675375    -0.18700
C2118       C  0.88999629  0.41260960  0.36219225     0.09700
S2119       S  0.75523957  0.37806682  0.35533740    -0.33700
S2120       S  0.94251869  0.42526925  0.36308212    -0.33700
H2121       H  0.95864418  0.46572852  0.35443633     0.27700
H2122       H  0.73834946  0.33700217  0.36265611     0.27700
H2123       H  0.82738939  0.45259313  0.36735627     0.18300
H2124       H  0.87033428  0.35065053  0.35277166     0.18300
C2125       C  0.95037983  0.11313155  0.19394593    -0.07500
C2126       C  0.91169364  0.08864373  0.18277655    -0.18700
C2127       C  0.89941140  0.04923327  0.17444416     0.09700
C2128       C  0.92589005  0.03382683  0.17863743    -0.07500
C2129       C  0.96478011  0.05856530  0.18947301    -0.18700
C2130       C  0.97717720  0.09804246  0.19757352     0.09700
S2131       S  0.85041019  0.02096445  0.15789091    -0.33700
S2132       S  0.52739786  0.12529431  0.21452748    -0.33700
H2133       H  0.51652671  0.14523066  0.23425037     0.27700
H2134       H  0.86267743  0.49854808  0.14044747     0.27700
H2135       H  0.89107515  0.10035014  0.18052841     0.18300
H2136       H  0.98539280  0.04687792  0.19186018     0.18300
C2137       C  0.61936474  0.12782906  0.36626626    -0.07500
C2138       C  0.58213044  0.11117080  0.35244990    -0.18700
C2139       C  0.56646431  0.13561407  0.34438679     0.09700
C2140       C  0.58905498  0.17748019  0.35004117    -0.07500
C2141       C  0.62593178  0.19400965  0.36425881    -0.18700
C2142       C  0.64108391  0.16942057  0.37301425     0.09700
S2143       S  0.51866680  0.11188784  0.32602174    -0.33700
S2144       S  0.68800352  0.19325930  0.39253819    -0.33700
H2145       H  0.68352183  0.15887527  0.40637699     0.27700
H2146       H  0.50587684  0.13882289  0.33469039     0.27700
H2147       H  0.56491673  0.07886044  0.34836800     0.18300
H2148       H  0.64325732  0.22635827  0.36816884     0.18300
C2149       C  0.78627166  0.46380471  0.03247358    -0.07500
C2150       C  0.81767691  0.50362254  0.02797342    -0.18700
C2151       C  0.80884823  0.03418776  0.02248769     0.09700
C2152       C  0.76800293  0.02474661  0.02150827    -0.07500
C2153       C  0.73680293  0.48526781  0.02637747    -0.18700
C2154       C  0.74543474  0.45450087  0.03151530     0.09700
S2155       S  0.85082389  0.08503604  0.01805153    -0.33700
S2156       S  0.70306455  0.40371630  0.03544205    -0.33700
H2157       H  0.72319994  0.38401538  0.02512319     0.27700
H2158       H  0.82975973  0.10475696  0.02646191     0.27700
H2159       H  0.84909924  0.51112869  0.02981359     0.18300
H2160       H  0.70525376  0.97758236  0.02511678     0.18300
C2161       C  0.75348609  0.19912605  0.50827243    -0.07500
C2162       C  0.79260661  0.22192437  0.51915081    -0.18700
C2163       C  0.80657076  0.26109675  0.52839890     0.09700
C2164       C  0.78124848  0.27801216  0.52562058    -0.07500
C2165       C  0.74244976  0.25560398  0.51407950    -0.18700
C2166       C  0.72835361  0.21619906  0.50490924     0.09700
S2167       S  0.85603538  0.28700811  0.54456016    -0.33700
S2168       S  0.67871818  0.19007627  0.48893646    -0.33700
H2169       H  0.68353248  0.16149354  0.47362573     0.27700
H2170       H  0.84641059  0.30681007  0.56514166     0.27700
H2171       H  0.81208289  0.20879638  0.52086729     0.18300
H2172       H  0.72298658  0.26875019  0.51253292     0.18300
C2173       C  0.95210296  0.29410801  0.69868527    -0.07500
C2174       C  0.98234709  0.33500005  0.69758931    -0.18700
C2175       C  0.97221508  0.36473735  0.69240741     0.09700
C2176       C  0.93128523  0.35302103  0.68761839    -0.07500
C2177       C  0.90095455  0.31223301  0.68939377    -0.18700
C2178       C  0.91101943  0.28252491  0.69468921     0.09700
S2179       S  0.51220398  0.41550858  0.69219347    -0.33700
S2180       S  0.87045921  0.23036992  0.69532919    -0.33700
H2181       H  0.89432199  0.21359881  0.68697814     0.27700
H2182       H  0.98730557  0.43341051  0.69907925     0.27700
H2183       H  0.51317210  0.34225133  0.70118239     0.18300
H2184       H  0.86957996  0.30324868  0.68500183     0.18300
C2185       C  0.59068147  0.36465400  0.84488687    -0.07500
C2186       C  0.62766681  0.38556465  0.85884169    -0.18700
C2187       C  0.64239256  0.42538030  0.86705949     0.09700
C2188       C  0.61951654  0.44425068  0.86093192    -0.07500
C2189       C  0.58243139  0.42327356  0.84696554    -0.18700
C2190       C  0.56784032  0.38337851  0.83856322     0.09700
S2191       S  0.68899264  0.44944276  0.88677429    -0.33700
S2192       S  0.52085648  0.35682158  0.81930617    -0.33700
H2193       H  0.51026616  0.38721568  0.82112081     0.27700
H2194       H  0.70370214  0.48840185  0.87576422     0.27700
H2195       H  0.64526764  0.37089826  0.86305790     0.18300
H2196       H  0.56479635  0.43798015  0.84315393     0.18300
C2197       C  0.67308717  0.09128612  0.17433449    -0.07500
C2198       C  0.66303846  0.07283763  0.20025823    -0.18700
C2199       C  0.68359110  0.05429188  0.21068091     0.09700
C2200       C  0.71628172  0.05657773  0.19550218    -0.07500
C2201       C  0.72607920  0.07451428  0.16941699    -0.18700
C2202       C  0.70447767  0.09175771  0.15848130     0.09700
S2203       S  0.66556021  0.02658805  0.24272737    -0.33700
S2204       S  0.71869228  0.11407799  0.12449778    -0.33700
H2205       H  0.70662665  0.14309088  0.12832746     0.27700
H2206       H  0.67850129  0.99857230  0.23723967     0.27700
H2207       H  0.63759404  0.07085736  0.21167468     0.18300
H2208       H  0.75144004  0.07629735  0.15801518     0.18300
C2209       C  0.64660259  0.42037195  0.34784098    -0.07500
C2210       C  0.63916484  0.40460682  0.37458798    -0.18700
C2211       C  0.60027666  0.38695865  0.38551727     0.09700
C2212       C  0.56855510  0.38510646  0.36911537    -0.07500
C2213       C  0.57619990  0.40124654  0.34245817    -0.18700
C2214       C  0.61527938  0.42000424  0.33191595     0.09700
S2215       S  0.59303255  0.36673508  0.42015569    -0.33700
S2216       S  0.62372110  0.44474266  0.29872766    -0.33700
H2217       H  0.66415420  0.47485534  0.30408066     0.27700
H2218       H  0.55293822  0.33517623  0.41586805     0.27700
H2219       H  0.66333545  0.40462153  0.38653578     0.18300
H2220       H  0.55211347  0.40133370  0.33046610     0.18300
C2221       C  0.81287198  0.24684092  0.01711566    -0.07500
C2222       C  0.78973884  0.20824326  0.02862906    -0.18700
C2223       C  0.75039811  0.19499035  0.03762257     0.09700
C2224       C  0.73404227  0.22072057  0.03425232    -0.07500
C2225       C  0.75713978  0.25923887  0.02270363    -0.18700
C2226       C  0.79628498  0.27234706  0.01348268     0.09700
S2227       S  0.72322353  0.14553570  0.05344623    -0.33700
S2228       S  0.82259791  0.32106998  0.99647087    -0.33700
H2229       H  0.84504960  0.31182649  0.97780982     0.27700
H2230       H  0.69893162  0.15348201  0.07126771     0.27700
H2231       H  0.80238919  0.18839396  0.03051062     0.18300
H2232       H  0.74433531  0.27892020  0.02053369     0.18300
C2233       C  0.99836069  0.25083500  0.51393471    -0.07500
C2234       C  0.53959545  0.28097549  0.51679107    -0.18700
C2235       C  0.56917456  0.27071818  0.52267658     0.09700
C2236       C  0.55768365  0.22947770  0.52523720    -0.07500
C2237       C  0.51714200  0.19927730  0.52154976    -0.18700
C2238       C  0.98708483  0.20967797  0.51641984     0.09700
S2239       S  0.62103956  0.31127196  0.52638121    -0.33700
S2240       S  0.93502783  0.16904235  0.51438013    -0.33700
H2241       H  0.91793079  0.19193850  0.52419481     0.27700
H2242       H  0.63923437  0.28818653  0.51941869     0.27700
H2243       H  0.54852956  0.31256948  0.51380994     0.18300
H2244       H  0.50806578  0.16768252  0.52475320     0.18300
C2245       C  0.88478633  0.39177843  0.86133553    -0.07500
C2246       C  0.84563358  0.36091831  0.85450982    -0.18700
C2247       C  0.81531558  0.37009005  0.84871583     0.09700
C2248       C  0.82456350  0.41086429  0.84960511    -0.07500
C2249       C  0.86374978  0.44162481  0.85651671    -0.18700
C2250       C  0.89419415  0.43253642  0.86173287     0.09700
S2251       S  0.76530781  0.32861763  0.84078100    -0.33700
S2252       S  0.94489299  0.47417704  0.86778217    -0.33700
H2253       H  0.96512137  0.45447464  0.85759742     0.27700
H2254       H  0.74397612  0.34720043  0.85088053     0.27700
H2255       H  0.83813973  0.32946814  0.85503286     0.18300
H2256       H  0.87138511  0.47311388  0.85608704     0.18300
C2257       C  0.98211296  0.07492803  0.68866853    -0.07500
C2258       C  0.95921435  0.03592955  0.69974280    -0.18700
C2259       C  0.91953702  0.02190329  0.70857569     0.09700
C2260       C  0.90245837  0.04697542  0.70495492    -0.07500
C2261       C  0.92531902  0.08578294  0.69385273    -0.18700
C2262       C  0.96508066  0.10012161  0.68572923     0.09700
S2263       S  0.89277902  0.97240938  0.72440697    -0.33700
S2264       S  0.99134573  0.14935788  0.66966985    -0.33700
H2265       H  0.02654377  0.16307531  0.68579577     0.27700
H2266       H  0.86794504  0.98008193  0.74189615     0.27700
H2267       H  0.97221648  0.01635920  0.70128500     0.18300
H2268       H  0.91208843  0.10509502  0.69163838     0.18300
C2269       C  0.79197209  0.99748645  0.71487112     0.78800
N2270       N  0.82843714  0.50845115  0.70325965    -0.79500
C2271       C  0.86313187  0.53609673  0.71560039     0.81300
N2272       N  0.86205257  0.55455064  0.73887469    -0.79400
C2273       C  0.82651709  0.54556907  0.75062743     0.81400
N2274       N  0.79070500  0.51625444  0.73888944    -0.81200
C2275       C  0.59003234  0.63212250  0.66919233     0.78800
N2276       N  0.55594402  0.61630383  0.68483115    -0.79500
C2277       C  0.52029503  0.58611080  0.67508668     0.81300
N2278       N  0.51798976  0.57113842  0.64955382    -0.79400
C2279       C  0.55121445  0.58549523  0.63350200     0.81400
N2280       N  0.58768155  0.61667809  0.64309906    -0.81200
C2281       C  0.77508986  0.97036968  0.83264330     0.78800
N2282       N  0.79432590  0.95458693  0.84738262    -0.79500
C2283       C  0.79668125  0.92256815  0.83772541     0.81300
N2284       N  0.78089034  0.90675673  0.81289218    -0.79400
C2285       C  0.76147957  0.92121593  0.79760097     0.81400
N2286       N  0.75854396  0.95367000  0.80726557    -0.81200
C2287       C  0.93915169  0.83712672  0.87792385     0.78800
N2288       N  0.95496590  0.85386571  0.90336503    -0.79500
C2289       C  0.94884290  0.88404791  0.91367606     0.81300
N2290       N  0.92697690  0.89625791  0.89904560    -0.79400
C2291       C  0.91170770  0.88029590  0.87417260     0.81400
N2292       N  0.91726245  0.85054110  0.86375288    -0.81200
C2293       C  0.94410012  0.80570254  0.49842251     0.78800
N2294       N  0.96692992  0.79261191  0.51166908    -0.79500
C2295       C  0.97164659  0.76258674  0.50091795     0.81300
N2296       N  0.95442020  0.74588744  0.47656996    -0.79400
C2297       C  0.93162449  0.75797478  0.46275072     0.81400
N2298       N  0.92642863  0.78849983  0.47346158    -0.81200
C2299       C  0.60679094  0.67092433  0.54435509     0.78800
N2300       N  0.62106926  0.68660738  0.57020950    -0.79500
C2301       C  0.61659925  0.71805344  0.57989961     0.81300
N2302       N  0.59806522  0.73296929  0.56407419    -0.79400
C2303       C  0.58416365  0.71788764  0.53874528     0.81400
N2304       N  0.58784864  0.68658032  0.52909790    -0.81200
C2305       C  0.92171206  0.80183321  0.00075368     0.78800
N2306       N  0.88664460  0.78741966  0.01523822    -0.79500
C2307       C  0.85144434  0.75699957  0.00504784     0.81300
N2308       N  0.85039508  0.74095597  0.98018758    -0.79400
C2309       C  0.88431278  0.75444615  0.96510534     0.81400
N2310       N  0.92053360  0.78546990  0.97515379    -0.81200
C2311       C  0.62453330  0.66774397  0.04728725     0.78800
N2312       N  0.62373235  0.68572101  0.07186091    -0.79500
C2313       C  0.65949503  0.71667459  0.08261550     0.81300
N2314       N  0.69460231  0.72811281  0.06936261    -0.79400
C2315       C  0.69530896  0.71026239  0.04569432     0.81400
N2316       N  0.66070087  0.68029607  0.03470705    -0.81200
C2317       C  0.95804183  0.83477489  0.38015340     0.78800
N2318       N  0.99456833  0.84658416  0.36825858    -0.79500
C2319       C  0.52912512  0.87361776  0.38105190     0.81300
N2320       N  0.52786726  0.89105101  0.40473270    -0.79400
C2321       C  0.99248948  0.88128996  0.41667156     0.81400
N2322       N  0.95680032  0.85198263  0.40490982    -0.81200
C2323       C  0.75562227  0.97145719  0.33298999     0.78800
N2324       N  0.75501096  0.95420041  0.30787472    -0.79500
C2325       C  0.71851874  0.92495048  0.29698185     0.81300
N2326       N  0.68393411  0.91472331  0.31039444    -0.79400
C2327       C  0.68438531  0.93198521  0.33458440     0.81400
N2328       N  0.71991255  0.95967869  0.34612844    -0.81200
C2329       C  0.61343456  0.64174414  0.16302169     0.78800
N2330       N  0.63902427  0.63079378  0.17457576    -0.79500
C2331       C  0.64677212  0.60397929  0.16182038     0.81300
N2332       N  0.62804293  0.58651352  0.13814473    -0.79400
C2333       C  0.60169194  0.59559752  0.12634202     0.81400
N2334       N  0.59449173  0.62414027  0.13839427    -0.81200
C2335       C  0.77306990  0.00468148  0.21187083     0.78800
N2336       N  0.75080952  0.51765588  0.19738418    -0.79500
C2337       C  0.74431040  0.54662720  0.20797599     0.81300
N2338       N  0.76029570  0.56366166  0.23245917    -0.79400
C2339       C  0.78274887  0.55206257  0.24700699     0.81400
N2340       N  0.78883245  0.52170705  0.23692602    -0.81200
C2341       C  0.53611589  0.75486782  0.83136095     0.78800
N2342       N  0.54864224  0.79108676  0.84385769    -0.79500
C2343       C  0.57783158  0.82565520  0.83236142     0.81300
N2344       N  0.59488568  0.82477876  0.80838057    -0.79400
C2345       C  0.58348507  0.78952006  0.79538909     0.81400
N2346       N  0.55335236  0.75389963  0.80657757    -0.81200
C2347       C  0.67214356  0.55250172  0.87796039     0.78800
N2348       N  0.65598230  0.55093782  0.90368180    -0.79500
C2349       C  0.62576782  0.51441946  0.91383411     0.81300
N2350       N  0.61234626  0.98044129  0.89871202    -0.79400
C2351       C  0.62811263  0.98197203  0.87364588     0.81400
N2352       N  0.65830568  0.51764789  0.86339379    -0.81200
C2353       C  0.87350849  0.90150510  0.66791873     0.78800
N2354       N  0.88969720  0.91606650  0.64218085    -0.79500
C2355       C  0.92119443  0.91141672  0.63256410     0.81300
N2356       N  0.93542156  0.89214716  0.64835932    -0.79400
C2357       C  0.91974095  0.87799958  0.67356028     0.81400
N2358       N  0.88865199  0.88211013  0.68309180    -0.81200
C2359       C  0.50736403  0.73952285  0.71378682     0.78800
N2360       N  0.99255607  0.75946819  0.69940360    -0.79500
C2361       C  0.96191583  0.76345627  0.70990248     0.81300
N2362       N  0.94615940  0.74751012  0.73463897    -0.79400
C2363       C  0.95968086  0.72655260  0.74911607     0.81400
N2364       N  0.99073142  0.72191620  0.73866406    -0.81200
C2365       C  0.70188312  0.58962078  0.49652175     0.78800
N2366       N  0.72036638  0.58836918  0.47234236    -0.79500
C2367       C  0.74989491  0.62409646  0.46078792     0.81300
N2368       N  0.75939890  0.65950081  0.47276818    -0.79400
C2369       C  0.74097615  0.66070432  0.49594741     0.81400
N2370       N  0.71252819  0.62614787  0.50793913    -0.81200
C2371       C  0.83716211  0.88569616  0.54502889     0.78800
N2372       N  0.82197176  0.85160781  0.52943854    -0.79500
C2373       C  0.79131554  0.81609971  0.53889247     0.81300
N2374       N  0.77581315  0.81367929  0.56420305    -0.79400
C2375       C  0.79002091  0.84666584  0.58036359     0.81400
N2376       N  0.82125714  0.88321675  0.57098424    -0.81200
C2377       C  0.70912308  0.57332927  0.00119218     0.78800
N2378       N  0.72525968  0.58750307  0.97543247    -0.79500
C2379       C  0.75745290  0.58368042  0.96635639     0.81300
N2380       N  0.77257698  0.56582920  0.98265621    -0.79400
C2381       C  0.75703891  0.55204179  0.00789827     0.81400
N2382       N  0.72513447  0.55522384  0.01692525    -0.81200
C2383       C  0.84135497  0.90904428  0.04693286     0.78800
N2384       N  0.82779333  0.93139898  0.03361864    -0.79500
C2385       C  0.79698248  0.93519177  0.04408749     0.81300
N2386       N  0.78010045  0.91760250  0.06827294    -0.79400
C2387       C  0.79262790  0.89530900  0.08216746     0.81400
N2388       N  0.82388815  0.89100549  0.07173614    -0.81200
C2389       C  0.67603057  0.57520384  0.38068761     0.78800
N2390       N  0.65839294  0.55698243  0.40547808    -0.79500
C2391       C  0.62887927  0.56347547  0.41681350     0.81300
N2392       N  0.61883367  0.58855780  0.40403769    -0.79400
C2393       C  0.63618336  0.60639407  0.38007208     0.81400
N2394       N  0.66420894  0.59954129  0.36824453    -0.81200
C2395       C  0.54087151  0.73842840  0.33413103     0.78800
N2396       N  0.55412562  0.71683451  0.34871321    -0.79500
C2397       C  0.58271741  0.70959282  0.33825032     0.81300
N2398       N  0.59895608  0.72405567  0.31328328    -0.79400
C2399       C  0.58731410  0.74632473  0.29840260     0.81400
N2400       N  0.55746247  0.75321451  0.30852819    -0.81200
C2401       C  0.50480060  0.72138418  0.21104555     0.78800
N2402       N  0.98830735  0.71956552  0.23661683    -0.79500
C2403       C  0.95755331  0.68325197  0.24657849     0.81300
N2404       N  0.94450348  0.64936526  0.23153568    -0.79400
C2405       C  0.96074267  0.65053850  0.20673609     0.81400
N2406       N  0.99083196  0.68588950  0.19660543    -0.81200
C2407       C  0.87239403  0.92377615  0.16618043     0.78800
N2408       N  0.89038176  0.92288410  0.14167076    -0.79500
C2409       C  0.92187409  0.95830065  0.13111469     0.81300
N2410       N  0.93405411  0.99340304  0.14456486    -0.79400
C2411       C  0.91620774  0.99446302  0.16817895     0.81400
N2412       N  0.88543743  0.96000817  0.17890623    -0.81200
C2413       C  0.76944332  0.75319662  0.33547919     0.78800
N2414       N  0.78806352  0.78755905  0.35096315    -0.79500
C2415       C  0.79149483  0.82261924  0.34158369     0.81300
N2416       N  0.77767905  0.82417610  0.31627931    -0.79400
C2417       C  0.75941256  0.79105011  0.30020241     0.81400
N2418       N  0.75517402  0.75500979  0.30964213    -0.81200
C2419       C  0.93392127  0.55141240  0.38025434     0.78800
N2420       N  0.91057774  0.51546439  0.36720986    -0.79500
C2421       C  0.90542615  0.98027746  0.37812050     0.81300
N2422       N  0.92286330  0.98075008  0.40238074    -0.79400
C2423       C  0.94611439  0.51592828  0.41608764     0.81400
N2424       N  0.95168008  0.55177871  0.40521457    -0.81200
C2425       C  0.76861575  0.71636852  0.71312928     0.78800
N2426       N  0.74454319  0.68015137  0.70061914    -0.79500
C2427       C  0.73853239  0.64544277  0.71231784     0.81300
N2428       N  0.75683277  0.64624661  0.73615842    -0.79400
C2429       C  0.78144663  0.68147679  0.74894018     0.81400
N2430       N  0.78714006  0.71718248  0.73779688    -0.81200
C2431       C  0.60496020  0.91853216  0.66729619     0.78800
N2432       N  0.62572792  0.95304558  0.68228638    -0.79500
C2433       C  0.63308352  0.98897501  0.67194943     0.81300
N2434       N  0.61949685  0.99119238  0.64672242    -0.79400
C2435       C  0.59789006  0.95762270  0.63144469     0.81400
N2436       N  0.59093757  0.92076476  0.64142909    -0.81200
C2437       C  0.92116881  0.56777937  0.49905329     0.78800
N2438       N  0.92271652  0.58536311  0.47380266    -0.79500
C2439       C  0.88761433  0.58134847  0.46257242     0.81300
N2440       N  0.85243484  0.55987994  0.47603012    -0.79400
C2441       C  0.85060864  0.54261632  0.50046089     0.81400
N2442       N  0.88474341  0.54633427  0.51200208    -0.81200
C2443       C  0.62378944  0.90314715  0.54509221     0.78800
N2444       N  0.65936635  0.92495405  0.53122216    -0.79500
C2445       C  0.69451324  0.92979795  0.54174774     0.81300
N2446       N  0.69460628  0.91327830  0.56623072    -0.79400
C2447       C  0.66033958  0.89178954  0.58069990     0.81400
N2448       N  0.62430775  0.88679033  0.57041509    -0.81200
C2449       C  0.78993948  0.73594536  0.21051182     0.78800
N2450       N  0.79170957  0.72124797  0.23616423    -0.79500
C2451       C  0.82788599  0.72564278  0.24559002     0.81300
N2452       N  0.86130564  0.74486340  0.22980314    -0.79400
C2453       C  0.85977675  0.75959312  0.20486145     0.81400
N2454       N  0.82452891  0.75563881  0.19539477    -0.81200
C2455       C  0.58704593  0.90011414  0.16588110     0.78800
N2456       N  0.55080943  0.87716306  0.17871562    -0.79500
C2457       C  0.51622390  0.87281516  0.16765140     0.81300
N2458       N  0.51716718  0.89082682  0.14363397    -0.79400
C2459       C  0.55229327  0.91360975  0.13014427     0.81400
N2460       N  0.58785467  0.91818624  0.14100109    -0.81200
C2461       C  0.93923066  0.58698014  0.00094474     0.78800
N2462       N  0.96021145  0.62174662  0.01567156    -0.79500
C2463       C  0.96658773  0.65738181  0.00534574     0.81300
N2464       N  0.95192703  0.65899336  0.98038891    -0.79400
C2465       C  0.93044704  0.62519702  0.96530606     0.81400
N2466       N  0.92439178  0.58868794  0.97528133    -0.81200
C2467       C  0.60043189  0.88406359  0.04720360     0.78800
N2468       N  0.57694590  0.84780374  0.03463616    -0.79500
C2469       C  0.57208728  0.81340860  0.04606631     0.81300
N2470       N  0.59011073  0.81448565  0.07010886    -0.79400
C2471       C  0.61348467  0.84973736  0.08327823     0.81400
N2472       N  0.61859991  0.88519350  0.07210351    -0.81200
C2473       C  0.75440382  0.73373150  0.83302606     0.78800
N2474       N  0.75324222  0.74812511  0.80715318    -0.79500
C2475       C  0.71761501  0.74478002  0.79762279     0.81300
N2476       N  0.68421622  0.72695883  0.81351890    -0.79400
C2477       C  0.68521069  0.71295254  0.83884285     0.81400
N2478       N  0.71998116  0.71586865  0.84840857    -0.81200
C2479       C  0.95779350  0.57063976  0.87830407     0.78800
N2480       N  0.95893497  0.55503160  0.90373279    -0.79500
C2481       C  0.99513439  0.56014770  0.91364415     0.81300
N2482       N  0.52866730  0.58016645  0.89805435    -0.79400
C2483       C  0.52793789  0.59579410  0.87332722     0.81400
N2484       N  0.99292006  0.59181893  0.86386802    -0.81200
O2485       O  0.86551433  0.58829861  0.78749120    -0.87900
O2486       O  0.73236297  0.61644324  0.88547860    -0.88100
O2487       O  0.77156050  0.53074377  0.82625627    -0.89700
O2488       O  0.78321958  0.64254247  0.78640074    -0.88500
O2489       O  0.83206192  0.70998159  0.78343564    -0.88100
O2490       O  0.80089811  0.52327875  0.86577015    -0.89400
O2491       O  0.72451726  0.58197849  0.84483732    -0.87900
O2492       O  0.79803397  0.56950791  0.78418614    -0.87500
Zr2493     Zr  0.79165056  0.60290179  0.82440725     2.84300
O2494       O  0.80661749  0.66645915  0.84008074    -1.09500
O2495       O  0.84219862  0.58959043  0.84072871    -1.10200
C2496       C  0.82964273  0.56865010  0.77592673     1.05200
C2497       C  0.71118452  0.58730744  0.86832286     1.05200
C2498       C  0.78118892  0.50993361  0.84254387     1.08100
C2499       C  0.79997332  0.67831790  0.77481280     1.05900
H2500       H  0.76901739  0.57901999  0.88038636     0.31500
O2501       O  0.79313742  0.60179989  0.87299166    -1.30400
H2502       H  0.85611193  0.65255079  0.78865348     0.31200
O2503       O  0.85599372  0.65271006  0.80862840    -1.32100
O2504       O  0.84351563  0.71352740  0.92756143    -0.87900
O2505       O  0.97761556  0.68947382  0.82617668    -0.89400
O2506       O  0.79694474  0.58173115  0.92860696    -0.88000
O2507       O  0.81817980  0.73668034  0.82597306    -0.88000
O2508       O  0.92002368  0.72666036  0.78680165    -0.87700
O2509       O  0.89367226  0.56670631  0.88599223    -0.87500
O2510       O  0.92972572  0.66618586  0.92802257    -0.87900
O2511       O  0.94335962  0.77712320  0.88544527    -0.87400
O2512       O  0.88346395  0.59772420  0.92901934    -0.88400
O2513       O  0.91593482  0.78447630  0.84491551    -0.87600
O2514       O  0.77486673  0.62805338  0.92901343    -0.88000
O2515       O  0.92786487  0.59322530  0.84525306    -0.87700
O2516       O  0.93802673  0.67738709  0.78437049    -0.87400
O2517       O  0.78213258  0.70852084  0.86582235    -0.87800
O2518       O  0.91206615  0.73597583  0.92863491    -0.88100
O2519       O  0.98521947  0.72707068  0.86519692    -0.89400
Zr2520     Zr  0.80545516  0.66596188  0.88837369     2.83100
Zr2521     Zr  0.90547279  0.63801609  0.82472467     2.83500
Zr2522     Zr  0.84327523  0.58932045  0.88899840     2.84100
Zr2523     Zr  0.87078256  0.71718257  0.82426575     2.83400
Zr2524     Zr  0.91991482  0.70402542  0.88873979     2.84200
O2525       O  0.91899461  0.70208536  0.84049331    -1.10000
O2526       O  0.85620316  0.65315072  0.90398762    -1.09500
C2527       C  0.87992730  0.73401873  0.93843365     1.05200
C2528       C  0.99820685  0.72040548  0.84204641     1.07800
C2529       C  0.77702844  0.59828197  0.93931206     1.05400
C2530       C  0.78812839  0.72760879  0.84249681     1.05700
C2531       C  0.93885122  0.70950546  0.77549725     1.05300
C2532       C  0.92283963  0.57481357  0.86879679     1.04900
C2533       C  0.91386975  0.62980255  0.93881755     1.05300
C2534       C  0.93492196  0.79805385  0.86832925     1.04800
H2535       H  0.93016267  0.64033529  0.88048490     0.31500
O2536       O  0.90711497  0.64132122  0.87319603    -1.31100
H2537       H  0.86908464  0.74001879  0.88002062     0.31500
O2538       O  0.86803997  0.71601303  0.87276075    -1.32500
O2539       O  0.94939556  0.92539264  0.95089618    -0.87900
O2540       O  0.60728842  0.94943906  0.05219215    -0.88100
O2541       O  0.58332238  0.97339107  0.95087337    -0.89700
O2542       O  0.98558052  0.86247055  0.99316881    -0.88500
O2543       O  0.95066344  0.85506897  0.03354766    -0.88100
O2544       O  0.60608940  0.54193516  0.94986034    -0.89400
O2545       O  0.57708172  0.91182313  0.01316862    -0.87900
O2546       O  0.99627674  0.90400372  0.94962667    -0.87500
Zr2547     Zr  0.53526379  0.93549063  0.98975368     2.84300
O2548       O  0.53625155  0.93709733  0.03799724    -1.09500
O2549       O  0.52248081  0.98632820  0.97439037    -1.10200
C2550       C  0.96555026  0.90520629  0.94003160     1.05200
C2551       C  0.59667443  0.91842374  0.03639501     1.05200
C2552       C  0.60404888  0.00979470  0.94019166     1.08100
C2553       C  0.95619746  0.84144100  0.01022556     1.05900
H2554       H  0.60981431  0.99951103  0.99803451     0.31500
O2555       O  0.58563002  0.99818869  0.00525897    -1.30400
H2556       H  0.94844239  0.89949983  0.99843463     0.31200
O2557       O  0.97142459  0.92359271  0.00564858    -1.32100
O2558       O  0.59778068  0.55246245  0.08996863    -0.87900
O2559       O  0.93602473  0.52342155  0.99290392    -0.89400
O2560       O  0.64741907  0.57463908  0.99269881    -0.88000
O2561       O  0.01350949  0.91459284  0.09207823    -0.88000
O2562       O  0.90128323  0.90421090  0.05316874    -0.87700
O2563       O  0.53562432  0.55943393  0.95043401    -0.87500
O2564       O  0.55905527  0.60849839  0.05246595    -0.87900
O2565       O  0.96195571  0.49670110  0.09335203    -0.87400
O2566       O  0.59707369  0.61562154  0.01377632    -0.88400
O2567       O  0.94228085  0.92973067  0.09549745    -0.87600
O2568       O  0.65487095  0.54701372  0.03302095    -0.88000
O2569       O  0.96740474  0.51334406  0.94982408    -0.87700
O2570       O  0.89308422  0.93204136  0.01319141    -0.87400
O2571       O  0.58071554  0.96253094  0.09449839    -0.87800
O2572       O  0.54891660  0.57094671  0.09323265    -0.88100
O2573       O  0.96196094  0.55693332  0.03397538    -0.89400
Zr2574     Zr  0.58716484  0.00118717  0.05369284     2.83100
Zr2575     Zr  0.95878084  0.97347733  0.98966517     2.83500
Zr2576     Zr  0.57394586  0.55047423  0.98958077     2.84100
Zr2577     Zr  0.97311073  0.92246650  0.05422229     2.83400
Zr2578     Zr  0.50809157  0.53622264  0.05388725     2.84200
O2579       O  0.95954311  0.97276844  0.03796852    -1.10000
O2580       O  0.57211695  0.54967285  0.03774232    -1.09500
C2581       C  0.58165539  0.57225196  0.10128765     1.05200
C2582       C  0.94365731  0.55213691  0.01033063     1.07800
C2583       C  0.66861836  0.56659443  0.00988453     1.05400
C2584       C  0.54899502  0.93097807  0.10365661     1.05700
C2585       C  0.88030927  0.91356368  0.03679282     1.05300
C2586       C  0.49919046  0.54329466  0.93960817     1.04900
C2587       C  0.59022698  0.62893214  0.03677812     1.05300
C2588       C  0.94255441  0.96148128  0.10462444     1.04800
H2589       H  0.50962624  0.56056722  0.99812994     0.31500
O2590       O  0.51109210  0.53777335  0.00533948    -1.31100
H2591       H  0.52333681  0.98675417  0.08961533     0.31500
O2592       O  0.52286277  0.98639772  0.06964652    -1.32500
O2593       O  0.93060342  0.71771620  0.42514949    -0.87900
O2594       O  0.76828034  0.69041192  0.32691326    -0.88100
O2595       O  0.89283146  0.77584689  0.38528518    -0.89700
O2596       O  0.79226027  0.66330771  0.42416263    -0.88500
O2597       O  0.77402533  0.59605802  0.42726802    -0.88100
O2598       O  0.92984756  0.78405015  0.34585045    -0.89400
O2599       O  0.79537154  0.72486919  0.36752340    -0.87900
O2600       O  0.88160104  0.73610638  0.42769153    -0.87500
Zr2601     Zr  0.84173340  0.70365055  0.38721406     2.84300
O2602       O  0.79385012  0.64011301  0.37125673    -1.09500
O2603       O  0.90591912  0.71765295  0.37129457    -1.10200
C2604       C  0.91371307  0.73667742  0.43655620     1.05200
C2605       C  0.77596253  0.71929142  0.34429441     1.05200
C2606       C  0.92346693  0.79672099  0.36923804     1.08100
C2607       C  0.77286837  0.62742570  0.43554982     1.05900
H2608       H  0.84247432  0.72805220  0.33145325     0.31500
O2609       O  0.84420253  0.70538593  0.33869490    -1.30400
H2610       H  0.85678163  0.65423068  0.42308916     0.31200
O2611       O  0.85676755  0.65424670  0.40310666    -1.32100
O2612       O  0.78322688  0.59345757  0.28416722    -0.87900
O2613       O  0.94059436  0.61689729  0.38575882    -0.89400
O2614       O  0.86909566  0.72703360  0.28343606    -0.88000
O2615       O  0.73499277  0.56836762  0.38574177    -0.88000
O2616       O  0.84853571  0.58181431  0.42469421    -0.87700
O2617       O  0.98053666  0.74233458  0.32627355    -0.87500
O2618       O  0.91704210  0.64231570  0.28395385    -0.87900
O2619       O  0.82033422  0.53085080  0.32569692    -0.87400
O2620       O  0.93904721  0.71067101  0.28312943    -0.88400
O2621       O  0.78632530  0.52263317  0.36658293    -0.87600
O2622       O  0.80066462  0.68030826  0.28260794    -0.88000
O2623       O  0.98831437  0.71541349  0.36684412    -0.87700
O2624       O  0.91602246  0.63082261  0.42746133    -0.87400
O2625       O  0.72721560  0.59833516  0.34668531    -0.87800
O2626       O  0.83066601  0.57279101  0.28264930    -0.88100
O2627       O  0.91189903  0.58041969  0.34609766    -0.89400
Zr2628     Zr  0.79253203  0.64123988  0.32308968     2.83100
Zr2629     Zr  0.92126906  0.66948090  0.38714922     2.83500
Zr2630     Zr  0.90713795  0.71837641  0.32303109     2.84100
Zr2631     Zr  0.80748313  0.58966759  0.38720933     2.83400
Zr2632     Zr  0.86974203  0.60402331  0.32296208     2.84200
O2633       O  0.87090394  0.60538586  0.37115668    -1.10000
O2634       O  0.85638806  0.65456979  0.30775556    -1.09500
C2635       C  0.79965227  0.57359042  0.27320551     1.05200
C2636       C  0.93059393  0.58627171  0.36964815     1.07800
C2637       C  0.83265330  0.71046109  0.27255261     1.05400
C2638       C  0.71429029  0.57872807  0.36991541     1.05700
C2639       C  0.88453901  0.59876789  0.43618424     1.05300
C2640       C  0.00175926  0.73435018  0.34346839     1.04900
C2641       C  0.93723863  0.67870497  0.27321799     1.05300
C2642       C  0.79132254  0.50952560  0.34290489     1.04800
H2643       H  0.94391430  0.66821154  0.33139891     0.31500
O2644       O  0.91972012  0.66678400  0.33866242    -1.31100
H2645       H  0.78269883  0.56717542  0.33149082     0.31500
O2646       O  0.80562040  0.59141794  0.33871897    -1.32500
O2647       O  0.72584813  0.93946274  0.71952191    -0.87900
O2648       O  0.74915914  0.80497879  0.61781614    -0.88100
O2649       O  0.81261123  0.90423036  0.66001665    -0.89700
O2650       O  0.70091329  0.89082462  0.61808305    -0.88500
O2651       O  0.63246161  0.84432089  0.61663744    -0.88100
O2652       O  0.82034773  0.87755890  0.70074126    -0.89400
O2653       O  0.77109440  0.87333318  0.61706620    -0.87900
O2654       O  0.76355602  0.94670332  0.68064638    -0.87500
Zr2655     Zr  0.73948236  0.88127871  0.65703543     2.84300
O2656       O  0.68867217  0.81765241  0.64155070    -1.09500
O2657       O  0.73801918  0.88073267  0.70526911    -1.10200
C2658       C  0.75706626  0.95975672  0.70384170     1.05200
C2659       C  0.76947423  0.84147376  0.60711889     1.05200
C2660       C  0.83379667  0.89624435  0.67723012     1.08100
C2661       C  0.66453162  0.87490285  0.60710226     1.05900
H2662       H  0.77534818  0.83053579  0.66580049     0.31500
O2663       O  0.75129514  0.82946790  0.67307238    -1.30400
H2664       H  0.67566404  0.89191129  0.66522251     0.31200
O2665       O  0.67682220  0.86896503  0.67245726    -1.32100
O2666       O  0.65286339  0.69365291  0.66089481    -0.87900
O2667       O  0.62467187  0.82827807  0.75817405    -0.89400
O2668       O  0.77360092  0.78092215  0.71941467    -0.88000
O2669       O  0.61585489  0.75801062  0.61752539    -0.88000
O2670       O  0.60159609  0.85470554  0.65943545    -0.87700
O2671       O  0.76153369  0.88078190  0.75999921    -0.87500
O2672       O  0.67725992  0.74402677  0.75986273    -0.87900
O2673       O  0.56691101  0.73405034  0.71969698    -0.87400
O2674       O  0.74516737  0.79217455  0.76158111    -0.88400
O2675       O  0.55940718  0.76357648  0.68034738    -0.87600
O2676       O  0.74506395  0.74461370  0.67961140    -0.88000
O2677       O  0.71315226  0.90016794  0.76151479    -0.87700
O2678       O  0.62800195  0.88877660  0.70026269    -0.87400
O2679       O  0.66159242  0.73516307  0.61711097    -0.87800
O2680       O  0.61784143  0.68624980  0.70119208    -0.88100
O2681       O  0.60595749  0.76089895  0.76129133    -0.89400
Zr2682     Zr  0.70152958  0.76693921  0.65712286     2.83100
Zr2683     Zr  0.67394368  0.86751210  0.72090656     2.83500
Zr2684     Zr  0.75304925  0.83258219  0.72158552     2.84100
Zr2685     Zr  0.62492645  0.80491523  0.65679109     2.83400
Zr2686     Zr  0.63890947  0.75348150  0.72130072     2.84200
O2687       O  0.62578677  0.80408405  0.70499436    -1.10000
O2688       O  0.70243693  0.76853657  0.70548467    -1.09500
C2689       C  0.62380676  0.67247082  0.67811640     1.05200
C2690       C  0.60533451  0.79251421  0.76967660     1.07800
C2691       C  0.76423334  0.75074800  0.70297187     1.05400
C2692       C  0.63182836  0.73759498  0.60688783     1.05700
C2693       C  0.60937358  0.88365105  0.67671014     1.05300
C2694       C  0.74470860  0.90023013  0.77099701     1.04900
C2695       C  0.71347447  0.76082689  0.77092439     1.05300
C2696       C  0.54633674  0.74427395  0.70363396     1.04800
H2697       H  0.68837289  0.81793914  0.75704299     0.31500
O2698       O  0.68854321  0.81790349  0.73706458    -1.31100
H2699       H  0.61464021  0.73022675  0.66544053     0.31500
O2700       O  0.63732941  0.75457675  0.67268362    -1.32500
O2701       O  0.69911567  0.75792870  0.12002810    -0.87900
O2702       O  0.56569694  0.78471604  0.21907189    -0.88100
O2703       O  0.60522585  0.69965925  0.15886411    -0.89700
O2704       O  0.61550924  0.81101586  0.12067851    -0.88500
O2705       O  0.66425028  0.87845287  0.11783636    -0.88100
O2706       O  0.63533927  0.69180682  0.19782496    -0.89400
O2707       O  0.55804134  0.75008038  0.17855151    -0.87900
O2708       O  0.63151917  0.73910929  0.11736630    -0.87500
Zr2709     Zr  0.62514687  0.77152984  0.15802300     2.84300
O2710       O  0.64025926  0.83481700  0.17398666    -1.09500
O2711       O  0.67600471  0.75841341  0.17385726    -1.10200
C2712       C  0.66307005  0.73861857  0.10858353     1.05200
C2713       C  0.54449534  0.75567193  0.20184365     1.05200
C2714       C  0.61605760  0.67915736  0.17442367     1.08100
C2715       C  0.63205520  0.84682302  0.10923220     1.05900
H2716       H  0.60217893  0.74674209  0.21370736     0.31500
O2717       O  0.62642061  0.76956104  0.20651444    -1.30400
H2718       H  0.68937122  0.82113946  0.12228205     0.31200
O2719       O  0.68955982  0.82111930  0.14225248    -1.32100
O2720       O  0.67786831  0.88238330  0.26038899    -0.87900
O2721       O  0.81184369  0.85936588  0.15968333    -0.89400
O2722       O  0.62851676  0.74661214  0.26099042    -0.88000
O2723       O  0.65203321  0.90526842  0.16001413    -0.88000
O2724       O  0.75242574  0.89434605  0.11986338    -0.87700
O2725       O  0.72673869  0.73390775  0.21892039    -0.87500
O2726       O  0.76134726  0.83234552  0.26214075    -0.87900
O2727       O  0.77710424  0.94452448  0.21931939    -0.87400
O2728       O  0.71446628  0.76405074  0.26291267    -0.88400
O2729       O  0.74995482  0.95230598  0.17878342    -0.87600
O2730       O  0.60795653  0.79406027  0.26257947    -0.88000
O2731       O  0.76092275  0.76069849  0.17818969    -0.87700
O2732       O  0.77116119  0.84563312  0.11720445    -0.87400
O2733       O  0.61507978  0.87577996  0.19934493    -0.87800
O2734       O  0.74614204  0.90347647  0.26219703    -0.88100
O2735       O  0.82018742  0.89503012  0.19980078    -0.89400
Zr2736     Zr  0.63897556  0.83361907  0.22222236     2.83100
Zr2737     Zr  0.73950554  0.80660377  0.15789316     2.83500
Zr2738     Zr  0.67666638  0.75692667  0.22204500     2.84100
Zr2739     Zr  0.70433812  0.88534823  0.15804719     2.83400
Zr2740     Zr  0.75386031  0.87139389  0.22239860     2.84200
O2741       O  0.75304407  0.87049432  0.17404384    -1.10000
O2742       O  0.68986265  0.82063114  0.23749836    -1.09500
C2743       C  0.71423068  0.90274015  0.27129027     1.05200
C2744       C  0.83303876  0.88941378  0.17621409     1.07800
C2745       C  0.60871267  0.76303416  0.27203355     1.05400
C2746       C  0.62136758  0.89531114  0.17613671     1.05700
C2747       C  0.77144204  0.87752153  0.10836651     1.05300
C2748       C  0.75562674  0.74167614  0.20154608     1.04900
C2749       C  0.74461053  0.79593132  0.27306220     1.05300
C2750       C  0.76885022  0.96564389  0.20224991     1.04800
H2751       H  0.76380148  0.80755376  0.21385872     0.31500
O2752       O  0.74095174  0.80882363  0.20650751    -1.31100
H2753       H  0.70305144  0.90749177  0.21370941     0.31500
O2754       O  0.70181975  0.88335245  0.20650711    -1.32500
O2755       O  0.00967469  0.54590267  0.59551646    -0.87900
O2756       O  0.64400527  0.52325850  0.49212508    -0.88100
O2757       O  0.59736784  0.49907667  0.59409165    -0.89700
O2758       O  0.60921888  0.61006165  0.55239041    -0.88500
O2759       O  0.58237736  0.61774193  0.51170549    -0.88100
O2760       O  0.55042760  0.93097329  0.59539830    -0.89400
O2761       O  0.65149876  0.56102881  0.53104503    -0.87900
O2762       O  0.57820212  0.56770703  0.59612469    -0.87500
Zr2763     Zr  0.58638635  0.53711014  0.55545428     2.84300
O2764       O  0.58519370  0.53544861  0.50718614    -1.09500
O2765       O  0.52269852  0.98633777  0.57102557    -1.10200
C2766       C  0.54623527  0.56577717  0.60633471     1.05200
C2767       C  0.66438047  0.55456711  0.50773900     1.05200
C2768       C  0.58135458  0.96272742  0.60504467     1.08100
C2769       C  0.60122772  0.63118768  0.53514795     1.05900
H2770       H  0.59663573  0.97332809  0.54697581     0.31500
O2771       O  0.57360608  0.97448972  0.53979640    -1.30400
H2772       H  0.53547157  0.57298276  0.54722346     0.31200
O2773       O  0.53420627  0.54891900  0.53983775    -1.32100
O2774       O  0.53151077  0.92230043  0.45408457    -0.87900
O2775       O  0.89813576  0.94922988  0.55313933    -0.89400
O2776       O  0.55955679  0.89929629  0.55233455    -0.88000
O2777       O  0.58674805  0.56088203  0.45386162    -0.88000
O2778       O  0.98564781  0.57210571  0.49367022    -0.87700
O2779       O  0.96180003  0.91147790  0.59475282    -0.87500
O2780       O  0.93778647  0.86475421  0.49274593    -0.87900
O2781       O  0.94740411  0.97594621  0.45356315    -0.87400
O2782       O  0.96738145  0.85716677  0.53208202    -0.88400
O2783       O  0.99655953  0.54373600  0.45098886    -0.87600
O2784       O  0.59434270  0.92648031  0.51188143    -0.88000
O2785       O  0.94027716  0.95819103  0.59612113    -0.87700
O2786       O  0.94767734  0.54153945  0.53250263    -0.87400
O2787       O  0.60480036  0.51172612  0.45078383    -0.87800
O2788       O  0.96413167  0.90411154  0.45084389    -0.88100
O2789       O  0.89036359  0.91503287  0.51236658    -0.89400
Zr2790     Zr  0.57182027  0.47160537  0.49104279     2.83100
Zr2791     Zr  0.97137751  0.99889032  0.55598912     2.83500
Zr2792     Zr  0.50975646  0.92269149  0.55563336     2.84100
Zr2793     Zr  0.53689345  0.55060061  0.49121572     2.83400
Zr2794     Zr  0.95741019  0.93674112  0.49130094     2.84200
O2795       O  0.97281638  0.00002295  0.50761217    -1.10000
O2796       O  0.50838899  0.92342191  0.50735962    -1.09500
C2797       C  0.49561433  0.90317679  0.44254037     1.05200
C2798       C  0.87689960  0.92024006  0.53585626     1.07800
C2799       C  0.58897919  0.90761914  0.53531761     1.05400
C2800       C  0.60606364  0.54431053  0.44240068     1.05700
C2801       C  0.95471352  0.56188795  0.50954481     1.05300
C2802       C  0.94171832  0.92759166  0.60578756     1.04900
C2803       C  0.94809852  0.84421323  0.50876185     1.05300
C2804       C  0.96407637  0.01193822  0.44226280     1.04800
H2805       H  0.93523916  0.91227047  0.54714502     0.31500
O2806       O  0.95929488  0.93518049  0.53986351    -1.31100
H2807       H  0.52199309  0.48641098  0.45521316     0.31500
O2808       O  0.52210284  0.98622087  0.47537126    -1.32500
C2809       C  0.56683459  0.62404245  0.86110945    -0.07500
C2810       C  0.57533638  0.66386687  0.85673262    -0.18700
C2811       C  0.61502333  0.69488258  0.85228320     0.09700
C2812       C  0.64654373  0.68561018  0.85169069    -0.07500
C2813       C  0.63805648  0.64587448  0.85636584    -0.18700
C2814       C  0.59843215  0.61488178  0.86062122     0.09700
S2815       S  0.62378703  0.74570902  0.84803991    -0.33700
S2816       S  0.58985498  0.56408218  0.86456775    -0.33700
H2817       H  0.54929049  0.54401321  0.85544141     0.27700
H2818       H  0.66465959  0.76564434  0.85652679     0.27700
H2819       H  0.55132083  0.67122859  0.85826322     0.18300
H2820       H  0.66201019  0.63840896  0.85487685     0.18300
C2821       C  0.54389068  0.77431254  0.03477974    -0.07500
C2822       C  0.55990536  0.75283946  0.02165204    -0.18700
C2823       C  0.53458393  0.71298644  0.01351446     0.09700
C2824       C  0.99452829  0.69527487  0.01840634    -0.07500
C2825       C  0.47651101  0.71632261  0.03161591    -0.18700
C2826       C  0.50203150  0.75595648  0.04029125     0.09700
S2827       S  0.55710629  0.68830964  0.99472014    -0.33700
S2828       S  0.47978894  0.78143122  0.05841455    -0.33700
H2829       H  0.51084224  0.79993515  0.07828914     0.27700
H2830       H  0.03517746  0.65056766  0.00777802     0.27700
H2831       H  0.59230674  0.76712572  0.01796296     0.18300
H2832       H  0.94589170  0.70278353  0.03444919     0.18300
C2833       C  0.89798708  0.78897747  0.19275530    -0.07500
C2834       C  0.92089661  0.77519287  0.17880663    -0.18700
C2835       C  0.96051706  0.80240455  0.17065914     0.09700
C2836       C  0.97750671  0.84373670  0.17764265    -0.07500
C2837       C  0.95430479  0.85754773  0.19110114    -0.18700
C2838       C  0.91476908  0.83041096  0.19913570     0.09700
S2839       S  0.48808112  0.78069330  0.15399205    -0.33700
S2840       S  0.88763824  0.85018291  0.21811947    -0.33700
H2841       H  0.87136819  0.81926781  0.23811780     0.27700
H2842       H  0.51779802  0.81625206  0.14114000     0.27700
H2843       H  0.90795911  0.74315148  0.17447378     0.18300
H2844       H  0.96721787  0.88955322  0.19557648     0.18300
C2845       C  0.81061603  0.51477589  0.51131990    -0.07500
C2846       C  0.78095697  0.98876282  0.49274197    -0.16900
C2847       C  0.74230839  0.96048735  0.50177164     0.09700
C2848       C  0.73362439  0.95879613  0.53011294    -0.07500
C2849       C  0.76334852  0.98588354  0.54870059    -0.18700
C2850       C  0.80166372  0.01463796  0.53958051     0.09700
S2851       S  0.70639357  0.92665928  0.47648682    -0.33700
S2852       S  0.83516880  0.55094760  0.56407878    -0.33700
H2853       H  0.85288173  0.58341294  0.54522037     0.27700
H2854       H  0.68876235  0.89255284  0.49393000     0.27700
H2855       H  0.78812122  0.48915247  0.47070539     0.18300
H2856       H  0.75627145  0.98543225  0.57046020     0.18300
C2857       C  0.66070517  0.52622413  0.68524598    -0.07500
C2858       C  0.64410818  0.54643183  0.69938821    -0.18700
C2859       C  0.66864718  0.58645655  0.70768143     0.09700
C2860       C  0.71031003  0.60644253  0.70088155    -0.07500
C2861       C  0.72695431  0.58588734  0.68724562    -0.18700
C2862       C  0.70254721  0.54578424  0.67934413     0.09700
S2863       S  0.64490619  0.60902700  0.72764349    -0.33700
S2864       S  0.72622040  0.52230987  0.66040016    -0.33700
H2865       H  0.70031874  0.98236444  0.67067889     0.27700
H2866       H  0.67539318  0.64975639  0.72554573     0.27700
H2867       H  0.61172780  0.53120380  0.70338287     0.18300
H2868       H  0.75929544  0.60107372  0.68309466     0.18300
C2869       C  0.87727251  0.94111380  0.36620599    -0.07500
C2870       C  0.83647036  0.93056392  0.36366048    -0.18700
C2871       C  0.80678782  0.89066371  0.35807374     0.09700
C2872       C  0.81832003  0.86100939  0.35496722    -0.07500
C2873       C  0.85908978  0.87160261  0.35772485    -0.18700
C2874       C  0.88878930  0.91153012  0.36283999     0.09700
S2875       S  0.75476260  0.87917516  0.35529079    -0.33700
S2876       S  0.94103885  0.92332703  0.36374698    -0.33700
H2877       H  0.95765497  0.96361961  0.35460430     0.27700
H2878       H  0.73726092  0.83826476  0.36316769     0.27700
H2879       H  0.82752665  0.95312162  0.36709705     0.18300
H2880       H  0.86819410  0.84920795  0.35405876     0.18300
C2881       C  0.95187215  0.61235152  0.19476653    -0.07500
C2882       C  0.91310784  0.58758536  0.18382770    -0.18700
C2883       C  0.90102747  0.54823919  0.17553215     0.09700
C2884       C  0.92781422  0.53315302  0.17942115    -0.07500
C2885       C  0.96683018  0.55817259  0.19002300    -0.18700
C2886       C  0.97894173  0.59756256  0.19827728     0.09700
S2887       S  0.85185863  0.51955267  0.15931058    -0.33700
S2888       S  0.52817353  0.62747374  0.21334449    -0.33700
H2889       H  0.51714806  0.64674486  0.23349004     0.27700
H2890       H  0.85999568  0.99756396  0.14038567     0.27700
H2891       H  0.89224774  0.59902575  0.18173394     0.18300
H2892       H  0.98765626  0.54671716  0.19224128     0.18300
C2893       C  0.62507830  0.63404903  0.36805523    -0.07500
C2894       C  0.58855958  0.61697947  0.35336842    -0.18700
C2895       C  0.57206270  0.64067027  0.34533991     0.09700
C2896       C  0.59309690  0.68230146  0.35184055    -0.07500
C2897       C  0.62934882  0.69930800  0.36688259    -0.18700
C2898       C  0.64547810  0.67540551  0.37540712     0.09700
S2899       S  0.52500073  0.61631864  0.32614158    -0.33700
S2900       S  0.69089818  0.69909332  0.39642227    -0.33700
H2901       H  0.70506743  0.67248769  0.38985603     0.27700
H2902       H  0.51018684  0.64116509  0.33582093     0.27700
H2903       H  0.57231762  0.58479098  0.34878476     0.18300
H2904       H  0.64557341  0.73149952  0.37142020     0.18300
C2905       C  0.78622397  0.96373795  0.03253383    -0.07500
C2906       C  0.81758859  0.00344108  0.02767427    -0.18700
C2907       C  0.80896131  0.53440158  0.02276127     0.09700
C2908       C  0.76812092  0.52490800  0.02140721    -0.07500
C2909       C  0.73672677  0.98519639  0.02683459    -0.18700
C2910       C  0.74539103  0.95443441  0.03184675     0.09700
S2911       S  0.85092128  0.58535612  0.01877100    -0.33700
S2912       S  0.70308035  0.90359789  0.03577802    -0.33700
H2913       H  0.72327029  0.88398045  0.02538896     0.27700
H2914       H  0.82966285  0.60484815  0.02725387     0.27700
H2915       H  0.84902618  0.01090948  0.02923586     0.18300
H2916       H  0.70535399  0.47764462  0.02440002     0.18300
C2917       C  0.75217564  0.69989087  0.50711008    -0.07500
C2918       C  0.79157695  0.72258250  0.51756579    -0.18700
C2919       C  0.80581562  0.76164705  0.52713239     0.09700
C2920       C  0.78048671  0.77864599  0.52505074    -0.07500
C2921       C  0.74140736  0.75638549  0.51390033    -0.18700
C2922       C  0.72698350  0.71700811  0.50452559     0.09700
S2923       S  0.85558671  0.78717246  0.54288352    -0.33700
S2924       S  0.67680111  0.69088797  0.48942424    -0.33700
H2925       H  0.68145792  0.66286376  0.47331896     0.27700
H2926       H  0.84675812  0.80735421  0.56364004     0.27700
H2927       H  0.81104388  0.70939358  0.51878105     0.18300
H2928       H  0.72194144  0.76957687  0.51290074     0.18300
C2929       C  0.95090837  0.79142189  0.69800488    -0.07500
C2930       C  0.98141451  0.83214572  0.69625162    -0.18700
C2931       C  0.97154464  0.86208727  0.69117130     0.09700
C2932       C  0.93057103  0.85076377  0.68701495    -0.07500
C2933       C  0.89999091  0.81014970  0.68943759    -0.18700
C2934       C  0.90980334  0.78022967  0.69470535     0.09700
S2935       S  0.51236165  0.91556902  0.69150961    -0.33700
S2936       S  0.86886950  0.72829688  0.69620838    -0.33700
H2937       H  0.89208952  0.71079124  0.68791177     0.27700
H2938       H  0.98764735  0.93097339  0.69798916     0.27700
H2939       H  0.51325708  0.84235046  0.70106961     0.18300
H2940       H  0.86855128  0.80141855  0.68558909     0.18300
C2941       C  0.58895145  0.86460788  0.84399108    -0.07500
C2942       C  0.62635758  0.88568656  0.85741663    -0.18700
C2943       C  0.64111075  0.92540318  0.86587733     0.09700
C2944       C  0.61786131  0.94411047  0.86049718    -0.07500
C2945       C  0.58033365  0.92296299  0.84702935    -0.18700
C2946       C  0.56574572  0.88314689  0.83834502     0.09700
S2947       S  0.68815409  0.94934865  0.88510962    -0.33700
S2948       S  0.51838242  0.85649566  0.81952477    -0.33700
H2949       H  0.50785226  0.88691255  0.82154130     0.27700
H2950       H  0.70265163  0.98844717  0.87444884     0.27700
H2951       H  0.64422756  0.87116507  0.86111232     0.18300
H2952       H  0.56241392  0.93749730  0.84376913     0.18300
C2953       C  0.67396350  0.59211674  0.17365588    -0.07500
C2954       C  0.66409257  0.57418818  0.19973609    -0.18700
C2955       C  0.68449495  0.55560785  0.21032165     0.09700
C2956       C  0.71667467  0.55700485  0.19499280    -0.07500
C2957       C  0.72616504  0.57425779  0.16868670    -0.18700
C2958       C  0.70490622  0.59184823  0.15771690     0.09700
S2959       S  0.66709329  0.52934879  0.24292684    -0.33700
S2960       S  0.71921458  0.61398142  0.12370051    -0.33700
H2961       H  0.70785418  0.64351702  0.12758840     0.27700
H2962       H  0.67960691  0.50087405  0.23800350     0.27700
H2963       H  0.63899119  0.57281182  0.21124797     0.18300
H2964       H  0.75117878  0.57543670  0.15718986     0.18300
C2965       C  0.64594126  0.92105671  0.34721502    -0.07500
C2966       C  0.63927024  0.90648451  0.37427434    -0.18700
C2967       C  0.60064292  0.88891986  0.38558899     0.09700
C2968       C  0.56829511  0.88560219  0.36916503    -0.07500
C2969       C  0.57509757  0.90030114  0.34212403    -0.18700
C2970       C  0.61397472  0.91927863  0.33125578     0.09700
S2971       S  0.59468889  0.87102724  0.42081880    -0.33700
S2972       S  0.62134367  0.94284717  0.29772618    -0.33700
H2973       H  0.66143574  0.97398069  0.30280516     0.27700
H2974       H  0.55480836  0.83861801  0.41738772     0.27700
H2975       H  0.66392281  0.90756963  0.38626753     0.18300
H2976       H  0.55051603  0.89929523  0.33008211     0.18300
C2977       C  0.81312991  0.74685380  0.01735300    -0.07500
C2978       C  0.79003539  0.70822554  0.02881474    -0.18700
C2979       C  0.75066978  0.69488299  0.03777682     0.09700
C2980       C  0.73423287  0.72054020  0.03438308    -0.07500
C2981       C  0.75726572  0.75905623  0.02282591    -0.18700
C2982       C  0.79647291  0.77229567  0.01370146     0.09700
S2983       S  0.72365598  0.64544521  0.05361965    -0.33700
S2984       S  0.82279543  0.82115136  0.99686162    -0.33700
H2985       H  0.84569811  0.81228988  0.97835633     0.27700
H2986       H  0.69846774  0.65280826  0.07094060     0.27700
H2987       H  0.80274357  0.68842382  0.03068711     0.18300
H2988       H  0.74439815  0.77868167  0.02064130     0.18300
C2989       C  0.99963124  0.75146209  0.51299329    -0.07500
C2990       C  0.53884235  0.78092344  0.51743212    -0.18700
C2991       C  0.56864075  0.77086769  0.52305019     0.09700
C2992       C  0.55745049  0.72967928  0.52540409    -0.07500
C2993       C  0.51697833  0.69932909  0.52161716    -0.18700
C2994       C  0.98830462  0.71035360  0.51586611     0.09700
S2995       S  0.62047200  0.81159477  0.52636530    -0.33700
S2996       S  0.93617557  0.66977793  0.51444971    -0.33700
H2997       H  0.91942352  0.69300108  0.52423597     0.27700
H2998       H  0.63859155  0.78866426  0.51878687     0.27700
H2999       H  0.54757512  0.81249834  0.51463973     0.18300
H3000       H  0.50810420  0.66774786  0.52460530     0.18300
C3001       C  0.88416516  0.89148266  0.86148201    -0.07500
C3002       C  0.84495734  0.86056940  0.85482552    -0.18700
C3003       C  0.81448558  0.86964693  0.84929342     0.09700
C3004       C  0.82355591  0.91036886  0.85041519    -0.07500
C3005       C  0.86272989  0.94114014  0.85735125    -0.18700
C3006       C  0.89338164  0.93217774  0.86206266     0.09700
S3007       S  0.76458705  0.82814710  0.84116364    -0.33700
S3008       S  0.94420831  0.97393677  0.86737594    -0.33700
H3009       H  0.96410243  0.95422736  0.85661626     0.27700
H3010       H  0.74313631  0.84652331  0.85141046     0.27700
H3011       H  0.83759035  0.82915514  0.85516875     0.18300
H3012       H  0.87028657  0.97260936  0.85707164     0.18300
C3013       C  0.98225851  0.57606071  0.68834805    -0.07500
C3014       C  0.96102659  0.53840880  0.70147760    -0.18700
C3015       C  0.92101394  0.52341076  0.70989390     0.09700
C3016       C  0.90220539  0.54656287  0.70435643    -0.07500
C3017       C  0.92356501  0.58421389  0.69135971    -0.18700
C3018       C  0.96353130  0.59932566  0.68335377     0.09700
S3019       S  0.89682304  0.47568014  0.72826419    -0.33700
S3020       S  0.98819202  0.64721136  0.66537607    -0.33700
H3021       H  0.02517958  0.66245573  0.67962991     0.27700
H3022       H  0.85635532  0.46614875  0.72521538     0.27700
H3023       H  0.97543632  0.52033456  0.70463509     0.18300
H3024       H  0.90912499  0.60218898  0.68779255     0.18300
loop_ 
_geom_bond_atom_site_label_1 
_geom_bond_atom_site_label_2 
_geom_bond_distance 
_geom_bond_site_symmetry_2 
_ccdc_geom_bond_type 
C1          C390   1.485       .  S
C1          N758   1.357       .  A
C1          N762   1.379       .  A
N2            C3   1.347       .  A
N2          C757   1.358   1_545  A
C3          C748   1.440       .  S
C3            N4   1.338       .  A
N4            C5   1.343       .  A
C5          C228   1.475       .  S
C5            N6   1.378       .  A
N6          C757   1.379   1_545  A
C7          C421   1.491       .  S
C7            N8   1.356       .  A
C7           N12   1.376       .  A
N8            C9   1.350       .  A
C9         C2257   1.444   1_455  S
C9           N10   1.344       .  A
N10          C11   1.345       .  A
C11         C498   1.475       .  S
C11          N12   1.378       .  A
C13         C986   1.493       .  S
C13          N14   1.357       .  A
C13          N18   1.380       .  A
N14          C15   1.351       .  A
C15         C736   1.452       .  S
C15          N16   1.341       .  A
N16          C17   1.341       .  A
C17         C426   1.478       .  S
C17          N18   1.379       .  A
C19         C266   1.489       .  S
C19          N20   1.377       .  A
C19          N24   1.358       .  A
N20          C21   1.377       .  A
C21         C282   1.471       .  S
C21          N22   1.339       .  A
N22          C23   1.341       .  A
C23         C733   1.448       .  S
C23          N24   1.351       .  A
C25         C535   1.486       .  S
C25          N26   1.358       .  A
C25          N30   1.377       .  A
N26          C27   1.350       .  A
C27         C721   1.451       .  S
C27          N28   1.342       .  A
N28          C29   1.344       .  A
C29         C336   1.474       .  S
C29          N30   1.376       .  A
C31         C501   1.489       .  S
C31          N32   1.374       .  A
C31          N36   1.359       .  A
N32          C33   1.375       .  A
C33         C424   1.468       .  S
C33          N34   1.342       .  A
N34          C35   1.342       .  A
C35         C724   1.450       .  S
C35          N36   1.353       .  A
C37         C285   1.491       .  S
C37          N38   1.357       .  A
C37          N42   1.377   1_554  A
N38          C39   1.350       .  A
C39         C709   1.438       .  S
C39          N40   1.341   1_554  A
N40          C41   1.342       .  A
C41         C259   1.472       .  S
C41          N42   1.378       .  A
C43         C319   1.488       .  S
C43          N44   1.380       .  A
C43          N48   1.355       .  A
N44          C45   1.379       .  A
C45         C444   1.477       .  S
C45          N46   1.343       .  A
N46          C47   1.339       .  A
C47         C712   1.438       .  S
C47          N48   1.347       .  A
C49         C338   1.484       .  S
C49          N50   1.357       .  A
C49          N54   1.378       .  A
N50        C1563   1.349       .  A
C51         C700   1.444       .  S
C51          N52   1.338       .  A
C51        N1562   1.348   1_455  A
N52        C1565   1.342   1_455  A
C53        C2041   1.472       .  S
C53          N54   1.376       .  A
C53        N1564   1.341       .  A
C55        C1130   1.488       .  S
C55          N56   1.376       .  A
C55          N60   1.358       .  A
N56          C57   1.377       .  A
C57         C475   1.466       .  S
C57          N58   1.339       .  A
N58          C59   1.339       .  A
C59         C697   1.443       .  S
C59          N60   1.349       .  A
C61         C446   1.484       .  S
C61          N62   1.356       .  A
C61          N66   1.378       .  A
N62          C63   1.347       .  A
C63         C685   1.439       .  S
C63          N64   1.336       .  A
N64          C65   1.340       .  A
C65         C313   1.469       .  S
C65          N66   1.377       .  A
C67         C482   1.490       .  S
C67         N824   1.357       .  A
C67         N828   1.377       .  A
N68          C69   1.349       .  A
N68         C823   1.357       .  A
C69         C688   1.439       .  S
C69          N70   1.339       .  A
N70          C71   1.339       .  A
C71         C367   1.468       .  S
C71          N72   1.378       .  A
N72         C823   1.377       .  A
C73        C1772   1.482   1_455  S
C73          N74   1.356       .  A
C73          N78   1.376       .  A
N74          C75   1.347       .  A
C75         C673   1.438       .  S
C75          N76   1.338       .  A
N76          C77   1.343       .  A
C77         C422   1.468       .  S
C77          N78   1.375       .  A
C79         C229   1.489       .  S
C79          N80   1.377       .  A
C79          N84   1.356       .  A
N80          C81   1.378       .  A
C81        C1040   1.474       .  S
C81         N838   1.343   1_545  A
N82          C83   1.342       .  A
N82         C837   1.344       .  A
C83         C676   1.440       .  S
C83         N840   1.349       .  A
N84         C839   1.349   1_545  A
C85         C392   1.492       .  S
C85          N86   1.377       .  A
C85          N90   1.356       .  A
N86          C87   1.378       .  A
C87         C534   1.478       .  S
C87          N88   1.345       .  A
N88          C89   1.345       .  A
C89         C664   1.447       .  S
C89          N90   1.351       .  A
C91         C428   1.484       .  S
C91        N1604   1.357   1_455  A
C91        N1608   1.377   1_455  A
N92          C93   1.349       .  A
N92        C1603   1.357       .  A
C93         C661   1.444       .  S
C93          N94   1.340       .  A
N94          C95   1.342       .  A
C95         C263   1.470       .  S
C95          N96   1.376       .  A
N96        C1603   1.376       .  A
C97         C499   1.486       .  S
C97          N98   1.379       .  A
C97         N102   1.357       .  A
N98          C99   1.378       .  A
C99         C339   1.470       .  S
C99         N100   1.341       .  A
N100        C101   1.336       .  A
C101        C649   1.437       .  S
C101        N102   1.347       .  A
C103        C530   1.492       .  S
C103        N104   1.356       .  A
C103        N108   1.377       .  A
N104        C105   1.350       .  A
C105        C652   1.438       .  S
C105        N106   1.342       .  A
N106        C107   1.342       .  A
C107        C391   1.474       .  S
C107        N108   1.379       .  A
C109        C315   1.491       .  S
C109        N110   1.375   1_554  A
C109        N114   1.357       .  A
N110        C111   1.377       .  A
C111        C261   1.472       .  S
C111        N112   1.343       .  A
N112        C113   1.344   1_556  A
C113        C640   1.451       .  S
C113        N114   1.352       .  A
C115        C317   1.488       .  S
C115        N116   1.358       .  A
C115        N120   1.378       .  A
N116        C117   1.350       .  A
C117        C637   1.451       .  S
C117        N118   1.341       .  A
N118        C119   1.342       .  A
C119        C479   1.474       .  S
C119        N120   1.377       .  A
C121        C370   1.489       .  S
C121        N122   1.379       .  A
C121        N126   1.356       .  A
N122        C123   1.379       .  A
C123        C532   1.477       .  S
C123        N124   1.343       .  A
N124        C125   1.339       .  A
C125        C625   1.438       .  S
C125        N126   1.347       .  A
C127       C1884   1.489       .  S
C127        N128   1.357       .  A
C127        N132   1.376       .  A
N128        C129   1.348       .  A
C129        C628   1.440       .  S
C129        N130   1.342       .  A
N130        C131   1.344       .  A
C131        C477   1.474       .  S
C131        N132   1.379       .  A
C133        C445   1.489       .  S
C133       N1646   1.376   1_455  A
C133       N1650   1.357   1_455  A
N134        C135   1.377       .  A
N134       C1645   1.375       .  A
C135        C373   1.468       .  S
C135        N136   1.343       .  A
N136        C137   1.341       .  A
C137        C613   1.441       .  S
C137        N138   1.350       .  A
N138       C1645   1.357       .  A
C139        C476   1.494       .  S
C139        N140   1.378       .  A
C139        N144   1.359       .  A
N140        C141   1.378       .  A
C141        C320   1.476       .  S
C141        N142   1.344       .  A
N142        C143   1.340       .  A
C143       C1372   1.446       .  S
C143        N144   1.352       .  A
C145        C337   1.493       .  S
C145        N146   1.359       .  A
C145        N150   1.376       .  A
N146        C147   1.353       .  A
C147        C604   1.451       .  S
C147        N148   1.343       .  A
N148        C149   1.342       .  A
C149        C481   1.475       .  S
C149        N150   1.378       .  A
C151        C368   1.487       .  S
C151        N152   1.358       .  A
C151        N156   1.378       .  A
N152        C909   1.349   1_545  A
C153        C601   1.451       .  S
C153        N154   1.342       .  A
C153        N908   1.350       .  A
N154        C911   1.344       .  A
C155       C1292   1.477       .  S
C155        N156   1.377       .  A
C155        N910   1.344   1_545  A
C157        C423   1.483       .  S
C157        N158   1.358       .  A
C157        N162   1.376       .  A
N158        C159   1.348       .  A
C159        C592   1.438       .  S
C159        N160   1.337       .  A
N160        C161   1.342       .  A
C161        C231   1.467       .  S
C161        N162   1.375       .  A
C163        C425   1.491       .  S
C163        N164   1.356       .  A
C163        N168   1.377       .  A
N164        C165   1.348       .  A
C165       C1345   1.439       .  S
C165        N166   1.342       .  A
N166        C167   1.343       .  A
C167        C500   1.474       .  S
C167        N168   1.379       .  A
C169        C533   1.491       .  S
C169        N170   1.379       .  A
C169        N174   1.360       .  A
N170        C171   1.376       .  A
C171        C371   1.467       .  S
C171        N172   1.337       .  A
N172        C173   1.336       .  A
C173        C577   1.449       .  S
C173        N174   1.353       .  A
C175        C531   1.494       .  S
C175        N176   1.360       .  A
C175        N180   1.378       .  A
N176        C177   1.354       .  A
C177        C580   1.452       .  S
C177        N178   1.340       .  A
N178        C179   1.339       .  A
C179        C393   1.472       .  S
C179        N180   1.378       .  A
C181        C480   1.492       .  S
C181        N182   1.375       .  A
C181        N186   1.357       .  A
N182        C183   1.377       .  A
C183        C369   1.472       .  S
C183        N184   1.344       .  A
N184        C185   1.343       .  A
C185        C565   1.443       .  S
C185        N186   1.351       .  A
C187        C478   1.490       .  S
C187        N188   1.358       .  A
C187        N192   1.378       .  A
N188        C189   1.350       .  A
C189       C2080   1.443   1_455  S
C189        N190   1.340       .  A
N190        C191   1.344       .  A
C191        C316   1.475       .  S
C191        N192   1.377       .  A
C193        C314   1.489       .  S
C193        N194   1.356       .  A
C193        N198   1.376   1_554  A
N194        C195   1.349       .  A
C195        C556   1.441       .  S
C195        N196   1.342   1_554  A
N196        C197   1.343       .  A
C197        C265   1.474       .  S
C197        N198   1.378       .  A
C199        C283   1.483       .  S
C199        N200   1.356       .  A
C199        N204   1.376       .  A
N200        C201   1.347       .  A
C201        C553   1.440       .  S
C201        N202   1.339       .  A
N202        C203   1.344       .  A
C203        C447   1.470       .  S
C203        N204   1.375       .  A
C205        C262   1.486       .  S
C205        N206   1.376       .  A
C205        N210   1.357       .  A
N206        C207   1.376       .  A
C207        C427   1.471       .  S
C207        N208   1.343       .  A
N208        C209   1.342       .  A
C209        C544   1.449       .  S
C209        N210   1.351       .  A
C211        C264   1.489       .  S
C211        N212   1.376       .  A
C211        N216   1.359       .  A
N212        C213   1.376       .  A
C213       C1830   1.471       .  S
C213       N1726   1.341       .  A
N214        C215   1.342       .  A
N214       C1725   1.341   1_455  A
C215        C541   1.451       .  S
C215       N1728   1.353   1_455  A
N216       C1727   1.352       .  A
O217       Zr253   2.499       .  S
O217        C228   1.307       .  A
O218       Zr252   2.464       .  S
O218        C229   1.294       .  A
O219       Zr225   2.462       .  S
O219        C230   1.293       .  A
O220       Zr225   2.498       .  S
O220        C231   1.307       .  A
O221       Zr255   2.392       .  S
O221        C231   1.282       .  A
O222       Zr254   2.473       .  S
O222        C230   1.302       .  A
O223       Zr225   2.472       .  S
O223        C229   1.302       .  A
O224       Zr225   2.403       .  S
O224        C228   1.284       .  A
Zr225       O226   2.321       .  S
Zr225       O227   2.355       .  S
Zr225       O235   2.352       .  S
Zr225       O233   2.349       .  S
O226       Zr252   2.335       .  S
O226       Zr255   2.359       .  S
O227       Zr253   2.314       .  S
O227       Zr254   2.334       .  S
C230        C769   1.493   1_545  S
H232        O233   0.962       .  S
O233       Zr252   2.367       .  S
O233       Zr254   2.316       .  S
H234        O235   0.966       .  S
O235       Zr253   2.347       .  S
O235       Zr255   2.354       .  S
O236       Zr252   2.518       .  S
O236        C259   1.311       .  A
O237       Zr253   2.448       .  S
O237        C260   1.291       .  A
O238       Zr254   2.524       .  S
O238        C261   1.312       .  A
O239       Zr255   2.458       .  S
O239        C262   1.293       .  A
O240       Zr255   2.501       .  S
O240        C263   1.308       .  A
O241       Zr254   2.471       .  S
O241        C264   1.296       .  A
O242       Zr256   2.519       .  S
O242        C265   1.312       .  A
O243       Zr256   2.467       .  S
O243        C266   1.295       .  A
O244       Zr254   2.382       .  S
O244        C265   1.280       .  A
O245       Zr255   2.471       .  S
O245        C266   1.301       .  A
O246       Zr252   2.373       .  S
O246        C261   1.279       .  A
O247       Zr253   2.464       .  S
O247        C264   1.300       .  A
O248       Zr253   2.393       .  S
O248        C263   1.282       .  A
O249       Zr252   2.460       .  S
O249        C262   1.299       .  A
O250       Zr256   2.380       .  S
O250        C259   1.279       .  A
O251       Zr256   2.463       .  S
O251        C260   1.300       .  A
Zr252       O258   2.341       .  S
Zr252       O270   2.311       .  S
Zr253       O257   2.356       .  S
Zr253       O268   2.346       .  S
Zr254       O258   2.343       .  S
Zr254       O268   2.365       .  S
Zr255       O257   2.315       .  S
Zr255       O270   2.346       .  S
Zr256       O257   2.334       .  S
Zr256       O258   2.341       .  S
Zr256       O270   2.365       .  S
Zr256       O268   2.313       .  S
C260       C1585   1.482       .  S
H267        O268   0.962       .  S
H269        O270   0.962       .  S
O271       Zr307   2.518       .  S
O271        C282   1.312       .  A
O272       Zr306   2.449       .  S
O272        C283   1.291       .  A
O273       Zr279   2.519       .  S
O273        C284   1.311       .  A
O274      Zr1791   2.468       .  S
O274        C285   1.295   1_556  A
O275       Zr309   2.474       .  S
O275        C285   1.302       .  A
O276       Zr308   2.388       .  S
O276       C1040   1.281       .  A
O277       Zr279   2.462   1_554  S
O277        C283   1.300       .  A
O278      Zr1791   2.377       .  S
O278        C282   1.279       .  A
Zr279      O1786   2.469   1_455  S
Zr279      O1790   2.375   1_455  S
Zr279       O280   2.334   1_556  S
Zr279       O281   2.342       .  S
Zr279       O287   2.314   1_556  S
Zr279      O1801   2.368   1_456  S
O280       Zr306   2.357       .  S
O280      Zr1821   2.320   1_455  S
O281      Zr1819   2.343   1_455  S
O281      Zr1064   2.342       .  S
C284        C837   1.475       .  S
C284       O1032   1.281       .  A
H286        O287   0.962   1_556  S
O287       Zr306   2.345       .  S
O287      Zr1064   2.364   1_554  S
H288        O289   0.961   1_556  S
O289       Zr307   2.312   1_554  S
O289       Zr309   2.347       .  S
O289      Zr1791   2.367   1_554  S
O290      Zr1062   2.495       .  S
O290        C313   1.307       .  A
O291      Zr1063   2.465   1_545  S
O291        C314   1.294   1_556  A
O292       Zr308   2.470       .  S
O292        C315   1.295   1_556  A
O293       Zr309   2.498       .  S
O293       C1828   1.307       .  A
O294       Zr309   2.458       .  S
O294        C317   1.293       .  A
O295       Zr308   2.513       .  S
O295        C318   1.310   1_455  A
O296       Zr310   2.451       .  S
O296        C319   1.291       .  A
O297      Zr1822   2.505   1_565  S
O297       C1076   1.308       .  A
O298       Zr308   2.473   1_554  S
O298        C319   1.302       .  A
O299       Zr309   2.400       .  S
O299        C320   1.283       .  A
O300      Zr1062   2.467       .  S
O300        C315   1.300       .  A
O301      Zr1063   2.383   1_545  S
O301       C1830   1.280       .  A
O302       Zr307   2.466   1_554  S
O302        C317   1.300       .  A
O303       Zr306   2.401       .  S
O303        C316   1.283       .  A
O304       Zr310   2.393       .  S
O304        C313   1.282       .  A
O305      Zr1822   2.470       .  S
O305        C314   1.301       .  A
Zr306      O1046   2.498       .  S
Zr306      O1056   2.467       .  S
Zr306       O324   2.350       .  S
Zr306      O1068   2.313       .  S
Zr307      O1047   2.465       .  S
Zr307      O1057   2.380       .  S
Zr307       O311   2.336   1_556  S
Zr307      O1793   2.343       .  S
Zr307      O2590   2.367   1_556  S
Zr308       O312   2.330   1_556  S
Zr308       O322   2.320   1_556  S
Zr308      O1037   2.343   1_545  S
Zr308      O1043   2.364   1_546  S
Zr309       O311   2.357       .  S
Zr309      O1792   2.319       .  S
Zr309      O1836   2.352       .  S
Zr310      O1809   2.505   1_445  S
Zr310      O1817   2.469   1_455  S
Zr310       O312   2.358       .  S
Zr310       O322   2.352       .  S
Zr310      O2579   2.313   1_445  S
Zr310      O1080   2.348   1_545  S
O311      Zr2578   2.315       .  S
O312      Zr1062   2.312       .  S
C316       O1805   1.308       .  A
C318       C1725   1.472       .  S
C318       O1813   1.281       .  A
C320       O1053   1.308       .  A
H321        O322   0.963   1_556  S
O322      Zr2575   2.367   1_444  S
H323        O324   0.965       .  S
O324      Zr1821   2.353   1_455  S
O324      Zr1066   2.350       .  S
O325       Zr361   2.498       .  S
O325        C336   1.307       .  A
O326       Zr360   2.473       .  S
O326        C337   1.296       .  A
O327       Zr333   2.452       .  S
O327        C338   1.292       .  A
O328       Zr333   2.496       .  S
O328        C339   1.307       .  A
O329       Zr363   2.395       .  S
O329        C339   1.282       .  A
O330       Zr362   2.462       .  S
O330        C338   1.300       .  A
O331       Zr333   2.468       .  S
O331        C337   1.300       .  A
O332       Zr333   2.403       .  S
O332        C336   1.284       .  A
Zr333       O334   2.317       .  S
Zr333       O335   2.355       .  S
Zr333       O343   2.352       .  S
Zr333       O341   2.348       .  S
O334       Zr360   2.330       .  S
O334       Zr363   2.357       .  S
O335       Zr361   2.316       .  S
O335       Zr362   2.334       .  S
H340        O341   0.964       .  S
O341       Zr360   2.365       .  S
O341       Zr362   2.318       .  S
H342        O343   0.966       .  S
O343       Zr361   2.353       .  S
O343       Zr363   2.355       .  S
O344       Zr360   2.517       .  S
O344        C367   1.312       .  A
O345       Zr361   2.459       .  S
O345        C368   1.292       .  A
O346       Zr362   2.514       .  S
O346        C369   1.310       .  A
O347       Zr363   2.457       .  S
O347        C370   1.292       .  A
O348       Zr363   2.501       .  S
O348        C371   1.309       .  A
O349       Zr362   2.468       .  S
O349        C372   1.295       .  A
O350       Zr364   2.511       .  S
O350        C373   1.310       .  A
O351       Zr364   2.463       .  S
O351        C374   1.294       .  A
O352       Zr362   2.377       .  S
O352        C373   1.279       .  A
O353       Zr363   2.472       .  S
O353        C374   1.301       .  A
O354       Zr360   2.382       .  S
O354        C369   1.280       .  A
O355       Zr361   2.465       .  S
O355        C372   1.300       .  A
O356       Zr361   2.387       .  S
O356        C371   1.281       .  A
O357       Zr360   2.468       .  S
O357        C370   1.301       .  A
O358       Zr364   2.373       .  S
O358        C367   1.278       .  A
O359       Zr364   2.461       .  S
O359        C368   1.299       .  A
Zr360       O366   2.341       .  S
Zr360       O378   2.314       .  S
Zr361       O365   2.354       .  S
Zr361       O376   2.345       .  S
Zr362       O366   2.342       .  S
Zr362       O376   2.368       .  S
Zr363       O365   2.311       .  S
Zr363       O378   2.344       .  S
Zr364       O365   2.328       .  S
Zr364       O366   2.341       .  S
Zr364       O378   2.365       .  S
Zr364       O376   2.313       .  S
C372       C1639   1.488       .  S
C374        C811   1.487   1_545  S
H375        O376   0.962       .  S
H377        O378   0.964       .  S
O379       Zr415   2.452       .  S
O379        C390   1.291       .  A
O380       Zr414   2.525       .  S
O380        C391   1.313       .  A
O381       Zr387   2.467       .  S
O381        C392   1.295       .  A
O382       Zr387   2.520       .  S
O382        C393   1.312       .  A
O383       Zr417   2.379       .  S
O383        C393   1.279       .  A
O384       Zr416   2.474       .  S
O384        C392   1.302       .  A
O385       Zr387   2.376       .  S
O385        C391   1.279       .  A
O386       Zr387   2.465       .  S
O386        C390   1.300       .  A
Zr387       O388   2.342       .  S
Zr387       O389   2.331       .  S
Zr387       O397   2.313       .  S
Zr387       O395   2.364       .  S
O388       Zr414   2.341       .  S
O388       Zr417   2.342       .  S
O389       Zr415   2.354       .  S
O389       Zr416   2.315       .  S
H394        O395   0.963       .  S
O395       Zr414   2.312       .  S
O395       Zr416   2.347       .  S
H396        O397   0.963       .  S
O397       Zr415   2.344       .  S
O397       Zr417   2.368       .  S
O398       Zr414   2.469       .  S
O398        C421   1.295       .  A
O399       Zr415   2.489       .  S
O399        C422   1.305       .  A
O400       Zr416   2.457       .  S
O400        C423   1.293       .  A
O401       Zr417   2.511       .  S
O401        C424   1.310       .  A
O402       Zr417   2.468       .  S
O402        C425   1.295       .  A
O403       Zr416   2.516       .  S
O403        C426   1.311       .  A
O404       Zr418   2.503       .  S
O404        C427   1.308       .  A
O405       Zr418   2.454       .  S
O405        C428   1.292       .  A
O406       Zr416   2.394       .  S
O406        C427   1.282       .  A
O407       Zr417   2.462       .  S
O407        C428   1.300       .  A
O408       Zr414   2.458       .  S
O408        C423   1.299       .  A
O409       Zr415   2.398       .  S
O409        C426   1.283       .  A
O410       Zr415   2.472       .  S
O410        C425   1.301       .  A
O411       Zr414   2.378       .  S
O411        C424   1.279       .  A
O412       Zr418   2.469       .  S
O412        C421   1.301       .  A
O413       Zr418   2.398       .  S
O413        C422   1.283       .  A
Zr414       O420   2.337       .  S
Zr414       O432   2.367       .  S
Zr415       O419   2.314       .  S
Zr415       O430   2.354       .  S
Zr416       O420   2.357       .  S
Zr416       O430   2.351       .  S
Zr417       O419   2.331       .  S
Zr417       O432   2.321       .  S
Zr418       O419   2.356       .  S
Zr418       O420   2.316       .  S
Zr418       O432   2.351       .  S
Zr418       O430   2.350       .  S
H429        O430   0.966       .  S
H431        O432   0.962       .  S
O433       Zr469   2.509       .  S
O433        C444   1.310       .  A
O434       Zr468   2.465       .  S
O434        C445   1.294       .  A
O435       Zr441   2.448       .  S
O435        C446   1.290       .  A
O436       Zr441   2.491       .  S
O436        C447   1.305       .  A
O437       Zr471   2.400       .  S
O437        C447   1.283       .  A
O438       Zr470   2.467       .  S
O438        C446   1.301       .  A
O439       Zr441   2.472       .  S
O439        C445   1.301       .  A
O440       Zr441   2.400       .  S
O440        C444   1.283       .  A
Zr441       O442   2.316       .  S
Zr441       O443   2.356       .  S
Zr441       O451   2.352       .  S
Zr441       O449   2.345       .  S
O442       Zr468   2.334       .  S
O442       Zr471   2.356       .  S
O443       Zr469   2.318       .  S
O443       Zr470   2.331       .  S
H448        O449   0.962       .  S
O449       Zr468   2.366       .  S
O449       Zr470   2.316       .  S
H450        O451   0.965       .  S
O451       Zr469   2.355       .  S
O451       Zr471   2.349       .  S
O452       Zr468   2.509       .  S
O452        C475   1.310       .  A
O453       Zr469   2.469       .  S
O453        C476   1.295       .  A
O454       Zr470   2.518       .  S
O454        C477   1.311       .  A
O455       Zr471   2.462       .  S
O455        C478   1.293       .  A
O456       Zr471   2.507       .  S
O456        C479   1.309       .  A
O457       Zr470   2.470       .  S
O457        C480   1.296       .  A
O458       Zr472   2.531       .  S
O458        C481   1.314       .  A
O459       Zr472   2.471       .  S
O459        C482   1.295       .  A
O460       Zr470   2.377       .  S
O460        C481   1.279       .  A
O461       Zr471   2.470       .  S
O461        C482   1.302       .  A
O462       Zr468   2.384       .  S
O462        C477   1.280       .  A
O463       Zr469   2.474       .  S
O463        C480   1.302       .  A
O464       Zr469   2.394       .  S
O464        C479   1.283       .  A
O465       Zr468   2.466       .  S
O465        C478   1.300       .  A
O466       Zr472   2.376       .  S
O466        C475   1.279       .  A
O467       Zr472   2.469       .  S
O467        C476   1.300       .  A
Zr468       O474   2.344       .  S
Zr468       O486   2.312       .  S
Zr469       O473   2.355       .  S
Zr469       O484   2.351       .  S
Zr470       O474   2.343       .  S
Zr470       O484   2.370       .  S
Zr471       O473   2.322       .  S
Zr471       O486   2.344       .  S
Zr472       O473   2.337       .  S
Zr472       O474   2.343       .  S
Zr472       O486   2.368       .  S
Zr472       O484   2.314       .  S
H483        O484   0.962       .  S
H485        O486   0.963       .  S
O487      Zr1279   2.522   1_545  S
O487       C2010   1.312       .  A
O488       Zr522   2.451   1_545  S
O488        C499   1.291       .  A
O489       Zr495   2.521   1_565  S
O489       C1256   1.312       .  A
O490       Zr495   2.469       .  S
O490        C501   1.296       .  A
O491       Zr525   2.466       .  S
O491        C501   1.300       .  A
O492       Zr524   2.380       .  S
O492        C500   1.280       .  A
O493       Zr495   2.469       .  S
O493        C499   1.301       .  A
O494       Zr495   2.384       .  S
O494        C498   1.281       .  A
Zr495       O496   2.334       .  S
Zr495       O505   2.366       .  S
Zr495      O1253   2.343   1_545  S
Zr495      O1259   2.313   1_545  S
O496       Zr522   2.356   1_545  S
O496       Zr525   2.316       .  S
O497       Zr524   2.342       .  S
O497      Zr1251   2.344       .  S
O497      Zr2035   2.344   1_455  S
C498       O1999   1.312       .  A
C500       O1245   1.312       .  A
H502        O503   0.963       .  S
O503       Zr524   2.365       .  S
O503      Zr1251   2.311       .  S
O503      Zr1278   2.346       .  S
H504        O505   0.963       .  S
O505       Zr525   2.353       .  S
O505      Zr2791   2.317   1_445  S
O506      Zr1278   2.491       .  S
O506        C529   1.306   1_455  A
O507       Zr523   2.469       .  S
O507        C530   1.295       .  A
O508       Zr524   2.473       .  S
O508        C531   1.296       .  A
O509       Zr525   2.508       .  S
O509        C532   1.309       .  A
O510      Zr2037   2.454       .  S
O510        C533   1.293       .  A
O511      Zr2036   2.520       .  S
O511        C534   1.311       .  A
O512       Zr526   2.459       .  S
O512        C535   1.293       .  A
O513       Zr526   2.503       .  S
O513        C536   1.308       .  A
O514      Zr2036   2.461       .  S
O514        C535   1.299       .  A
O515      Zr2037   2.406       .  S
O515       C1292   1.284       .  A
O516      Zr1278   2.475       .  S
O516        C531   1.302       .  A
O517       Zr523   2.392       .  S
O517        C534   1.282       .  A
O518      Zr1279   2.478   1_545  S
O518        C533   1.303       .  A
O519       Zr522   2.401   1_545  S
O519        C532   1.283       .  A
O520       Zr526   2.403       .  S
O520       C2041   1.284       .  A
O521       Zr526   2.475       .  S
O521        C530   1.302       .  A
Zr522      O1262   2.494       .  S
Zr522      O1272   2.476       .  S
Zr522      O1259   2.344       .  S
Zr522      O1284   2.316       .  S
Zr522      O1296   2.357       .  S
Zr523      O1243   2.524       .  S
Zr523      O1274   2.477       .  S
Zr523       O527   2.340       .  S
Zr523       O538   2.367       .  S
Zr523      O2009   2.344       .  S
Zr523      O2773   2.317       .  S
Zr524      O2023   2.522   1_455  S
Zr524      O2026   2.460   1_455  S
Zr524       O528   2.336       .  S
Zr524      O2050   2.316   1_455  S
Zr525      O2022   2.451   1_455  S
Zr525      O2027   2.405   1_455  S
Zr525      O2795   2.357   1_455  S
Zr525      O1296   2.351   1_545  S
Zr526       O527   2.319       .  S
Zr526       O538   2.351       .  S
Zr526      O2040   2.358       .  S
Zr526      O2052   2.355       .  S
O527      Zr2793   2.358       .  S
O528      Zr1278   2.319       .  S
O528      Zr2038   2.359   1_455  S
C529       C1565   1.471       .  S
C529       O2032   1.284       .  A
C536        C911   1.477       .  S
C536       O1271   1.284       .  A
H537        O538   0.961       .  S
O538      Zr2036   2.317       .  S
H539       O1296   0.966       .  S
O540      Zr1278   2.356       .  S
O540      Zr1281   2.351       .  S
O540      Zr2038   2.355   1_455  S
O540       H1295   0.966       .  S
C541        C542   1.401       .  A
C541        C546   1.410       .  A
C542        C543   1.391       .  A
C542        H551   1.084       .  S
C543        C544   1.409       .  A
C543        S547   1.805       .  S
C544        C545   1.399       .  A
C545        C546   1.388       .  A
C545        H552   1.085       .  S
C546        S548   1.805       .  S
S547        H550   1.407       .  S
S548        H549   1.406       .  S
C553        C554   1.397       .  A
C553        C558   1.409       .  A
C554        C555   1.389       .  A
C554        H563   1.085       .  S
C555       C2068   1.410   1_455  A
C555        S559   1.805   1_554  S
C556       C2067   1.410       .  A
C556       C2069   1.396       .  A
C557        C558   1.388   1_655  A
C557       C2068   1.396       .  A
C557       H2076   1.085       .  S
C558        S560   1.804   1_455  S
S559       H2074   1.402   1_556  S
S560        H561   1.401   1_655  S
H562       S2071   1.402   1_554  S
H564       C2069   1.085       .  S
C565        C566   1.397       .  A
C565        C570   1.410       .  A
C566        C567   1.392       .  A
C566        H575   1.084       .  S
C567        C568   1.412       .  A
C567       S2083   1.807       .  S
C568       C1701   1.444       .  S
C568        C569   1.396       .  A
C569        C570   1.388       .  A
C569        H576   1.084       .  S
C570        S572   1.806       .  S
S571       C2079   1.806       .  S
S571        H574   1.403   1_655  S
S572        H573   1.406       .  S
C577       C1334   1.408   1_545  A
C577       C1338   1.400       .  A
C578        C579   1.389       .  A
C578       C1333   1.408       .  A
C578       H1343   1.084       .  S
C579        C580   1.404       .  A
C579        S583   1.804       .  S
C580        C581   1.408       .  A
C581        C582   1.387       .  A
C581        H588   1.084       .  S
C582       C1333   1.401       .  A
C582       S1340   1.804       .  S
S583        H586   1.406       .  S
S584       C1338   1.804       .  S
S584        H585   1.407       .  S
H587       C1334   1.084       .  S
C589        C921   1.438   1_545  S
C589        C590   1.397       .  A
C589        C594   1.409       .  A
C590        C591   1.390       .  A
C590        H599   1.085       .  S
C591        C592   1.411       .  A
C591        S595   1.808       .  S
C592        C593   1.396       .  A
C593        C594   1.386       .  A
C593        H600   1.085       .  S
C594        S596   1.806       .  S
S595        H598   1.403       .  S
S596       H1353   1.402   1_545  S
H597       S1352   1.403       .  S
C601        C602   1.400       .  A
C601        C606   1.409       .  A
C602        C603   1.393       .  A
C602        H611   1.084       .  S
C603        C604   1.411       .  A
C603        S607   1.805       .  S
C604        C605   1.399       .  A
C605        C606   1.390       .  A
C605        H612   1.085       .  S
C606        S608   1.805       .  S
S607        H610   1.407       .  S
S608        H609   1.407       .  S
C613        C614   1.396       .  A
C613        C618   1.410       .  A
C614        C615   1.390       .  A
C614        H623   1.085       .  S
C615        C616   1.411       .  A
C615        S619   1.805       .  S
C616        C899   1.445   1_545  S
C616        C617   1.398       .  A
C617        C618   1.390       .  A
C617        H624   1.084       .  S
C618       S2132   1.807       .  S
S619       H1378   1.405   1_545  S
S620       C2130   1.806   1_455  S
S620        H621   1.405       .  S
H622       S1375   1.405       .  S
C625        C626   1.396       .  A
C625        C630   1.410       .  A
C626        C627   1.388       .  A
C626        H635   1.085       .  S
C627        C628   1.409       .  A
C627        S631   1.805       .  S
C628        C629   1.396       .  A
C629        C630   1.389       .  A
C629        H636   1.084       .  S
C630        S632   1.806       .  S
S631        H634   1.405       .  S
S632        H633   1.404       .  S
C637        C638   1.401       .  A
C637        C642   1.410       .  A
C638       C1395   1.392       .  A
C638        H647   1.084       .  S
C639        C640   1.409       .  A
C639       C1394   1.392       .  A
C639        S643   1.804       .  S
C640       C1397   1.399   1_545  A
C641        C642   1.388       .  A
C641       C1396   1.399       .  A
C641       H1404   1.085       .  S
C642        S644   1.805       .  S
S643        H646   1.406       .  S
S644        H645   1.407       .  S
H648       C1397   1.085       .  S
C649        C650   1.396       .  A
C649        C654   1.409       .  A
C650        C651   1.385       .  A
C650        H659   1.085       .  S
C651        C652   1.408       .  A
C651        S655   1.806       .  S
C652        C653   1.398       .  A
C653        C654   1.391       .  A
C653        H660   1.084       .  S
C654        S656   1.806       .  S
S655        H658   1.405       .  S
S656        H657   1.404       .  S
C661        C662   1.400       .  A
C661        C666   1.408       .  A
C662        C663   1.390       .  A
C662       H2183   1.085       .  S
C663        C664   1.408       .  A
C663       S2179   1.805       .  S
C664        C665   1.400       .  A
C665        C666   1.389       .  A
C665        H672   1.085       .  S
C666        S668   1.806       .  S
S667       C2175   1.805   1_455  S
S667       H2182   1.407   1_455  S
S668        H669   1.407       .  S
H670       S2179   1.407       .  S
H671       C2174   1.085   1_455  S
C673        C674   1.394       .  A
C673        C678   1.406       .  A
C674        C675   1.387       .  A
C674        H683   1.085       .  S
C675        C676   1.410       .  A
C675        S679   1.806       .  S
C676        C677   1.398       .  A
C677        C678   1.394       .  A
C677        H684   1.083       .  S
C678        S680   1.808       .  S
S679        H682   1.402       .  S
S680        H681   1.407       .  S
C685        C686   1.393       .  A
C685        C690   1.413       .  A
C686        C687   1.384       .  A
C686        H695   1.085       .  S
C687        C688   1.411       .  A
C687        S691   1.806       .  S
C688        C689   1.394       .  A
C689        C690   1.388       .  A
C689        H696   1.084       .  S
C690        S692   1.804       .  S
S691        H694   1.407       .  S
S692        H693   1.406       .  S
C697        C698   1.394       .  A
C697        C702   1.411       .  A
C698        C699   1.388       .  A
C698        H707   1.084       .  S
C699        C700   1.415       .  A
C699        S703   1.806       .  S
C700        C701   1.394       .  A
C701        C702   1.385       .  A
C701        H708   1.085       .  S
C702        S704   1.805       .  S
S703        H706   1.406       .  S
S704        H705   1.408       .  S
C709        C710   1.397       .  A
C709        C714   1.410       .  A
C710        C711   1.389       .  A
C710        H719   1.085       .  S
C711        C712   1.409       .  A
C711        S715   1.804       .  S
C712        C713   1.396       .  A
C713        C714   1.387       .  A
C713        H720   1.085       .  S
C714        S716   1.807   1_554  S
S715        H718   1.404       .  S
S716        H717   1.404       .  S
C721        C726   1.409       .  A
C721       C2234   1.400       .  A
C722        C723   1.393       .  A
C722       C2233   1.400   1_455  A
C722        H731   1.085       .  S
C723        C724   1.411       .  A
C723        S727   1.805       .  S
C724        C725   1.399       .  A
C725       C2238   1.389   1_455  A
C725        H732   1.085       .  S
C726       C2237   1.389       .  A
C726        S728   1.805       .  S
S727        H730   1.406       .  S
S728        H729   1.407       .  S
C733        C734   1.398       .  A
C733        C738   1.409       .  A
C734        C735   1.391       .  A
C734        H743   1.085       .  S
C735        C736   1.412       .  A
C735        S739   1.803       .  S
C736        C737   1.399       .  A
C737        C738   1.387       .  A
C737        H744   1.084       .  S
C738        S740   1.804       .  S
S739        H742   1.406       .  S
S740        H741   1.407       .  S
C745       C1521   1.443       .  S
C745        C746   1.399       .  A
C745        C750   1.408       .  A
C746        C747   1.393       .  A
C746        H755   1.084       .  S
C747        C748   1.410       .  A
C747        S751   1.805   1_545  S
C748        C749   1.395       .  A
C749        C750   1.384       .  A
C749        H756   1.085       .  S
C750        S752   1.802       .  S
S751        H754   1.405       .  S
S752        H753   1.403       .  S
C757       C1146   1.485       .  S
N758        C759   1.347       .  A
C759       C1504   1.440       .  S
C759        N760   1.338       .  A
N760        C761   1.343       .  A
C761        C984   1.475       .  S
C761        N762   1.378       .  A
C763       C1177   1.491       .  S
C763        N764   1.356       .  A
C763        N768   1.376       .  A
N764        C765   1.350       .  A
C765       C3013   1.443   1_455  S
C765        N766   1.343       .  A
N766        C767   1.344       .  A
C767       C1254   1.475       .  S
C767        N768   1.378       .  A
C769        N770   1.357       .  A
C769        N774   1.380       .  A
N770        C771   1.352       .  A
C771       C1492   1.452       .  S
C771        N772   1.341       .  A
N772        C773   1.341       .  A
C773       C1182   1.479       .  S
C773        N774   1.379       .  A
C775       C1022   1.489       .  S
C775        N776   1.377       .  A
C775        N780   1.359       .  A
N776        C777   1.377       .  A
C777       C1038   1.472       .  S
C777        N778   1.339       .  A
N778        C779   1.341       .  A
C779       C1489   1.448       .  S
C779        N780   1.351       .  A
C781       C1291   1.486       .  S
C781        N782   1.358       .  A
C781        N786   1.377       .  A
N782        C783   1.349       .  A
C783       C1477   1.451       .  S
C783        N784   1.342       .  A
N784        C785   1.344       .  A
C785       C1092   1.475       .  S
C785        N786   1.376       .  A
C787       C1257   1.488       .  S
C787        N788   1.373       .  A
C787        N792   1.358       .  A
N788        C789   1.375       .  A
C789       C1180   1.468       .  S
C789        N790   1.343       .  A
N790        C791   1.343       .  A
C791       C1480   1.449       .  S
C791        N792   1.352       .  A
C793       C1041   1.490       .  S
C793        N794   1.357       .  A
C793        N798   1.376   1_554  A
N794        C795   1.350       .  A
C795       C1465   1.437       .  S
C795        N796   1.340   1_554  A
N796        C797   1.341       .  A
C797       C1015   1.470       .  S
C797        N798   1.377       .  A
C799       C1075   1.487       .  S
C799        N800   1.379       .  A
C799        N804   1.355       .  A
N800        C801   1.379       .  A
C801       C1200   1.476       .  S
C801        N802   1.343       .  A
N802        C803   1.339       .  A
C803       C1468   1.438       .  S
C803        N804   1.346       .  A
C805       C1094   1.483       .  S
C805        N806   1.356       .  A
C805        N810   1.378       .  A
N806       C2319   1.348       .  A
C807       C1456   1.443       .  S
C807       N2318   1.348   1_455  A
C807        N808   1.337       .  A
N808       C2321   1.341   1_455  A
C809       C2797   1.471       .  S
C809       N2320   1.341       .  A
C809        N810   1.376       .  A
C811        N812   1.376       .  A
C811        N816   1.357       .  A
N812        C813   1.377       .  A
C813       C1231   1.465       .  S
C813        N814   1.339       .  A
N814        C815   1.338       .  A
C815       C1453   1.441       .  S
C815        N816   1.349       .  A
C817       C1202   1.486       .  S
C817        N818   1.356       .  A
C817        N822   1.378       .  A
N818        C819   1.348       .  A
C819       C1441   1.439       .  S
C819        N820   1.336       .  A
N820        C821   1.340       .  A
C821       C1069   1.470       .  S
C821        N822   1.378       .  A
C823       C1238   1.489   1_545  S
N824        C825   1.349       .  A
C825       C1444   1.439       .  S
C825        N826   1.339       .  A
N826        C827   1.339       .  A
C827       C1123   1.470       .  S
C827        N828   1.378       .  A
C829       C2528   1.482   1_455  S
C829        N830   1.356       .  A
C829        N834   1.376       .  A
N830        C831   1.346       .  A
C831       C1429   1.438       .  S
C831        N832   1.338       .  A
N832        C833   1.343       .  A
C833       C1178   1.469       .  S
C833        N834   1.376       .  A
C835        C985   1.488       .  S
C835        N836   1.376       .  A
C835        N840   1.356       .  A
N836        C837   1.378       .  A
N838        C839   1.342       .  A
C839       C1432   1.440       .  S
C841       C1148   1.491       .  S
C841        N842   1.376       .  A
C841        N846   1.356       .  A
N842        C843   1.378       .  A
C843       C1290   1.477       .  S
C843        N844   1.345       .  A
N844        C845   1.345       .  A
C845       C1420   1.446       .  S
C845        N846   1.350       .  A
C847       C1184   1.485       .  S
C847       N2360   1.357   1_455  A
C847       N2364   1.377   1_455  A
N848       C2359   1.357       .  A
N848        C849   1.349       .  A
C849       C1417   1.444       .  S
C849        N850   1.339       .  A
N850        C851   1.342       .  A
C851       C1019   1.469       .  S
C851        N852   1.376       .  A
N852       C2359   1.377       .  A
C853       C1255   1.486       .  S
C853        N854   1.379       .  A
C853        N858   1.357       .  A
N854        C855   1.378       .  A
C855       C1095   1.471       .  S
C855        N856   1.341       .  A
N856        C857   1.336       .  A
C857       C1405   1.437       .  S
C857        N858   1.347       .  A
C859       C1286   1.492       .  S
C859        N860   1.356       .  A
C859        N864   1.377       .  A
N860        C861   1.350       .  A
C861       C1408   1.438       .  S
C861        N862   1.342       .  A
N862        C863   1.342       .  A
C863       C1147   1.474       .  S
C863        N864   1.379       .  A
C865       C1071   1.491       .  S
C865        N866   1.375   1_554  A
C865        N870   1.357       .  A
N866        C867   1.377       .  A
C867       C1017   1.473       .  S
C867        N868   1.344       .  A
N868        C869   1.344   1_556  A
C869       C1396   1.452       .  S
C869        N870   1.352       .  A
C871       C1073   1.488       .  S
C871        N872   1.359       .  A
C871        N876   1.377       .  A
N872        C873   1.351       .  A
C873       C1393   1.452       .  S
C873        N874   1.341       .  A
N874        C875   1.342       .  A
C875       C1235   1.472       .  S
C875        N876   1.376       .  A
C877       C1126   1.489       .  S
C877        N878   1.380       .  A
C877        N882   1.357       .  A
N878        C879   1.380       .  A
C879       C1288   1.479       .  S
C879        N880   1.344       .  A
N880        C881   1.339       .  A
C881       C1381   1.440       .  S
C881        N882   1.347       .  A
C883       C2640   1.489       .  S
C883        N884   1.357       .  A
C883        N888   1.376       .  A
N884        C885   1.348       .  A
C885       C1384   1.441       .  S
C885        N886   1.342       .  A
N886        C887   1.344       .  A
C887       C1233   1.475       .  S
C887        N888   1.378       .  A
C889       C1201   1.488       .  S
C889       N2402   1.375   1_455  A
C889       N2406   1.357   1_455  A
N890       C2401   1.375       .  A
N890        C891   1.377       .  A
C891       C1129   1.469       .  S
C891        N892   1.342       .  A
N892        C893   1.341       .  A
C893       C1369   1.440       .  S
C893        N894   1.349       .  A
N894       C2401   1.357       .  A
C895       C1232   1.492       .  S
C895        N896   1.378       .  A
C895        N900   1.358       .  A
N896        C897   1.378       .  A
C897       C1076   1.475       .  S
C897        N898   1.344       .  A
N898        C899   1.340       .  A
C899        N900   1.351       .  A
C901       C1093   1.494       .  S
C901        N902   1.359       .  A
C901        N906   1.376       .  A
N902        C903   1.353       .  A
C903       C1360   1.450       .  S
C903        N904   1.344       .  A
N904        C905   1.343       .  A
C905       C1237   1.476       .  S
C905        N906   1.378       .  A
C907       C1124   1.488       .  S
C907        N908   1.359       .  A
C907        N912   1.378       .  A
C909       C1357   1.450       .  S
C909        N910   1.342       .  A
C911        N912   1.377       .  A
C913       C1179   1.484       .  S
C913        N914   1.358       .  A
C913        N918   1.376       .  A
N914        C915   1.348       .  A
C915       C1348   1.439       .  S
C915        N916   1.337       .  A
N916        C917   1.342       .  A
C917        C987   1.469       .  S
C917        N918   1.376       .  A
C919       C1181   1.491       .  S
C919        N920   1.355       .  A
C919        N924   1.377       .  A
N920        C921   1.348       .  A
C921        N922   1.341       .  A
N922        C923   1.343       .  A
C923       C1256   1.474       .  S
C923        N924   1.379       .  A
C925       C1289   1.491       .  S
C925        N926   1.379       .  A
C925        N930   1.360       .  A
N926        C927   1.376       .  A
C927       C1127   1.468       .  S
C927        N928   1.337       .  A
N928        C929   1.336       .  A
C929       C1333   1.450       .  S
C929        N930   1.353       .  A
C931       C1287   1.493       .  S
C931        N932   1.360       .  A
C931        N936   1.378       .  A
N932        C933   1.353       .  A
C933       C1336   1.452       .  S
C933        N934   1.340       .  A
N934        C935   1.339       .  A
C935       C1149   1.472       .  S
C935        N936   1.378       .  A
C937       C1236   1.492       .  S
C937        N938   1.376       .  A
C937        N942   1.357       .  A
N938        C939   1.378       .  A
C939       C1125   1.473       .  S
C939        N940   1.343       .  A
N940        C941   1.342       .  A
C941       C1321   1.442       .  S
C941        N942   1.351       .  A
C943       C1234   1.489       .  S
C943        N944   1.358       .  A
C943        N948   1.378       .  A
N944        C945   1.350       .  A
C945       C2836   1.441   1_455  S
C945        N946   1.338       .  A
N946        C947   1.343       .  A
C947       C1072   1.471       .  S
C947        N948   1.377       .  A
C949       C1070   1.489       .  S
C949        N950   1.356       .  A
C949        N954   1.376   1_554  A
N950        C951   1.350       .  A
C951       C1312   1.439       .  S
C951        N952   1.341   1_554  A
N952        C953   1.343       .  A
C953       C1021   1.472       .  S
C953        N954   1.378       .  A
C955       C1039   1.482       .  S
C955        N956   1.356       .  A
C955        N960   1.376       .  A
N956        C957   1.347       .  A
C957       C1309   1.440       .  S
C957        N958   1.339       .  A
N958        C959   1.344       .  A
C959       C1203   1.471       .  S
C959        N960   1.376       .  A
C961       C1018   1.485       .  S
C961        N962   1.375       .  A
C961        N966   1.357       .  A
N962        C963   1.375       .  A
C963       C1183   1.470       .  S
C963        N964   1.343       .  A
N964        C965   1.343       .  A
C965       C1300   1.449       .  S
C965        N966   1.351       .  A
C967       C1020   1.489       .  S
C967        N968   1.375       .  A
C967        N972   1.360       .  A
N968        C969   1.375       .  A
C969       C2586   1.469       .  S
C969       N2482   1.340       .  A
N970       C2481   1.341   1_455  A
N970        C971   1.341       .  A
C971       C1297   1.449       .  S
C971       N2484   1.352   1_455  A
N972       C2483   1.353       .  A
O973      Zr1009   2.497       .  S
O973        C984   1.307       .  A
O974      Zr1008   2.462       .  S
O974        C985   1.294       .  A
O975       Zr981   2.462       .  S
O975        C986   1.293       .  A
O976       Zr981   2.497       .  S
O976        C987   1.307       .  A
O977      Zr1011   2.393       .  S
O977        C987   1.282       .  A
O978      Zr1010   2.474       .  S
O978        C986   1.302       .  A
O979       Zr981   2.470       .  S
O979        C985   1.301       .  A
O980       Zr981   2.403       .  S
O980        C984   1.284       .  A
Zr981       O982   2.321       .  S
Zr981       O983   2.355       .  S
Zr981       O991   2.351       .  S
Zr981       O989   2.351       .  S
O982      Zr1008   2.335       .  S
O982      Zr1011   2.358       .  S
O983      Zr1009   2.314       .  S
O983      Zr1010   2.333       .  S
H988        O989   0.963       .  S
O989      Zr1008   2.368       .  S
O989      Zr1010   2.317       .  S
H990        O991   0.966       .  S
O991      Zr1009   2.348       .  S
O991      Zr1011   2.353       .  S
O992      Zr1008   2.514       .  S
O992       C1015   1.311       .  A
O993      Zr1009   2.447       .  S
O993       C1016   1.291       .  A
O994      Zr1010   2.523       .  S
O994       C1017   1.312       .  A
O995      Zr1011   2.457       .  S
O995       C1018   1.292       .  A
O996      Zr1011   2.498       .  S
O996       C1019   1.307       .  A
O997      Zr1010   2.471       .  S
O997       C1020   1.296       .  A
O998      Zr1012   2.520       .  S
O998       C1021   1.312       .  A
O999      Zr1012   2.469       .  S
O999       C1022   1.295       .  A
O1000     Zr1010   2.380       .  S
O1000      C1021   1.280       .  A
O1001     Zr1011   2.469       .  S
O1001      C1022   1.301       .  A
O1002     Zr1008   2.377       .  S
O1002      C1017   1.279       .  A
O1003     Zr1009   2.464       .  S
O1003      C1020   1.299       .  A
O1004     Zr1009   2.393       .  S
O1004      C1019   1.282       .  A
O1005     Zr1008   2.460       .  S
O1005      C1018   1.299       .  A
O1006     Zr1012   2.378       .  S
O1006      C1015   1.279       .  A
O1007     Zr1012   2.464       .  S
O1007      C1016   1.300       .  A
Zr1008     O1014   2.340       .  S
Zr1008     O1026   2.312       .  S
Zr1009     O1013   2.355       .  S
Zr1009     O1024   2.345       .  S
Zr1010     O1014   2.344       .  S
Zr1010     O1024   2.365       .  S
Zr1011     O1013   2.314       .  S
Zr1011     O1026   2.345       .  S
Zr1012     O1013   2.332       .  S
Zr1012     O1014   2.341       .  S
Zr1012     O1026   2.365       .  S
Zr1012     O1024   2.312       .  S
C1016      C2341   1.482       .  S
H1023      O1024   0.962       .  S
H1025      O1026   0.962       .  S
O1027     Zr1063   2.521       .  S
O1027      C1038   1.312       .  A
O1028     Zr1062   2.450   1_565  S
O1028      C1039   1.291       .  A
O1029     Zr1035   2.516       .  S
O1029      C1040   1.311   1_565  A
O1030     Zr2547   2.466       .  S
O1030      C1041   1.295   1_556  A
O1031     Zr1065   2.475       .  S
O1031      C1041   1.302       .  A
O1032     Zr1064   2.387       .  S
O1033     Zr1035   2.459   1_554  S
O1033      C1039   1.299       .  A
O1034     Zr2547   2.376       .  S
O1034      C1038   1.279       .  A
Zr1035     O2542   2.469   1_455  S
Zr1035     O2546   2.375   1_455  S
Zr1035     O1036   2.333   1_556  S
Zr1035     O1037   2.342       .  S
Zr1035     O2557   2.368   1_456  S
Zr1035     O1043   2.314   1_556  S
O1036     Zr1062   2.357   1_565  S
O1036     Zr2577   2.320   1_455  S
O1037     Zr2575   2.342   1_455  S
H1042      O1043   0.962   1_556  S
O1043     Zr1062   2.342   1_565  S
H1044      O1045   0.962   1_556  S
O1045     Zr2547   2.368   1_554  S
O1045     Zr1063   2.316   1_554  S
O1045     Zr1065   2.350       .  S
O1046      C1069   1.308       .  A
O1047      C1070   1.294   1_556  A
O1048     Zr1064   2.469       .  S
O1048      C1071   1.295   1_556  A
O1049     Zr1065   2.503       .  S
O1049      C2584   1.308       .  A
O1050     Zr1065   2.462       .  S
O1050      C1073   1.293       .  A
O1051     Zr1064   2.511       .  S
O1051      C1074   1.310   1_455  A
O1052     Zr1066   2.451       .  S
O1052      C1075   1.291       .  A
O1053     Zr2578   2.504       .  S
O1054     Zr1064   2.470   1_554  S
O1054      C1075   1.302       .  A
O1055     Zr1065   2.398       .  S
O1055      C1076   1.283       .  A
O1056      C1071   1.300       .  A
O1057      C2586   1.280       .  A
O1058     Zr1063   2.466   1_554  S
O1058      C1073   1.300       .  A
O1059     Zr1062   2.395   1_565  S
O1059      C1072   1.282       .  A
O1060     Zr1066   2.392       .  S
O1060      C1069   1.281       .  A
O1061     Zr2578   2.469       .  S
O1061      C1070   1.301       .  A
Zr1062     O1080   2.350   1_545  S
Zr1063     O2549   2.341       .  S
Zr1063     O1067   2.335   1_556  S
Zr1063     O1834   2.367   1_566  S
Zr1064     O1068   2.330   1_556  S
Zr1064     O1078   2.318   1_556  S
Zr1065     O2548   2.317       .  S
Zr1065     O1067   2.356       .  S
Zr1065     O2592   2.352       .  S
Zr1066     O2565   2.507   1_455  S
Zr1066     O2573   2.473   1_455  S
Zr1066     O1823   2.314   1_455  S
Zr1066     O1068   2.358       .  S
Zr1066     O1078   2.348       .  S
O1067     Zr1822   2.314   1_565  S
C1072      O2561   1.308       .  A
C1074      C2481   1.469       .  S
C1074      O2569   1.280       .  A
H1077      O1078   0.963   1_556  S
O1078     Zr1819   2.366   1_454  S
H1079      O1080   0.965       .  S
O1080     Zr2577   2.352   1_455  S
O1081     Zr1117   2.500       .  S
O1081      C1092   1.307       .  A
O1082     Zr1116   2.475       .  S
O1082      C1093   1.296       .  A
O1083     Zr1089   2.449       .  S
O1083      C1094   1.291       .  A
O1084     Zr1089   2.494       .  S
O1084      C1095   1.307       .  A
O1085     Zr1119   2.399       .  S
O1085      C1095   1.283       .  A
O1086     Zr1118   2.464       .  S
O1086      C1094   1.300       .  A
O1087     Zr1089   2.469       .  S
O1087      C1093   1.301       .  A
O1088     Zr1089   2.403       .  S
O1088      C1092   1.284       .  A
Zr1089     O1090   2.315       .  S
Zr1089     O1091   2.355       .  S
Zr1089     O1099   2.352       .  S
Zr1089     O1097   2.348       .  S
O1090     Zr1116   2.331       .  S
O1090     Zr1119   2.357       .  S
O1091     Zr1117   2.317       .  S
O1091     Zr1118   2.334       .  S
H1096      O1097   0.964       .  S
O1097     Zr1116   2.366       .  S
O1097     Zr1118   2.317       .  S
H1098      O1099   0.966       .  S
O1099     Zr1117   2.353       .  S
O1099     Zr1119   2.354       .  S
O1100     Zr1116   2.521       .  S
O1100      C1123   1.312       .  A
O1101     Zr1117   2.462       .  S
O1101      C1124   1.293       .  A
O1102     Zr1118   2.522       .  S
O1102      C1125   1.312       .  A
O1103     Zr1119   2.458       .  S
O1103      C1126   1.292       .  A
O1104     Zr1119   2.504       .  S
O1104      C1127   1.309       .  A
O1105     Zr1118   2.472       .  S
O1105      C1128   1.296       .  A
O1106     Zr1120   2.514       .  S
O1106      C1129   1.311       .  A
O1107     Zr1120   2.464       .  S
O1107      C1130   1.294       .  A
O1108     Zr1118   2.377       .  S
O1108      C1129   1.279       .  A
O1109     Zr1119   2.473       .  S
O1109      C1130   1.301       .  A
O1110     Zr1116   2.379       .  S
O1110      C1125   1.279       .  A
O1111     Zr1117   2.463       .  S
O1111      C1128   1.300       .  A
O1112     Zr1117   2.386       .  S
O1112      C1127   1.280       .  A
O1113     Zr1116   2.467       .  S
O1113      C1126   1.301       .  A
O1114     Zr1120   2.373       .  S
O1114      C1123   1.278       .  A
O1115     Zr1120   2.461       .  S
O1115      C1124   1.299       .  A
Zr1116     O1122   2.342       .  S
Zr1116     O1134   2.314       .  S
Zr1117     O1121   2.354       .  S
Zr1117     O1132   2.346       .  S
Zr1118     O1122   2.342       .  S
Zr1118     O1132   2.368       .  S
Zr1119     O1121   2.312       .  S
Zr1119     O1134   2.347       .  S
Zr1120     O1121   2.330       .  S
Zr1120     O1122   2.342       .  S
Zr1120     O1134   2.366       .  S
Zr1120     O1132   2.313       .  S
C1128      C2395   1.490       .  S
H1131      O1132   0.962       .  S
H1133      O1134   0.964       .  S
O1135     Zr1171   2.453       .  S
O1135      C1146   1.291       .  A
O1136     Zr1170   2.525       .  S
O1136      C1147   1.313       .  A
O1137     Zr1143   2.467       .  S
O1137      C1148   1.295       .  A
O1138     Zr1143   2.520       .  S
O1138      C1149   1.312       .  A
O1139     Zr1173   2.381       .  S
O1139      C1149   1.279       .  A
O1140     Zr1172   2.474       .  S
O1140      C1148   1.302       .  A
O1141     Zr1143   2.377       .  S
O1141      C1147   1.279       .  A
O1142     Zr1143   2.464       .  S
O1142      C1146   1.300       .  A
Zr1143     O1144   2.342       .  S
Zr1143     O1145   2.332       .  S
Zr1143     O1153   2.313       .  S
Zr1143     O1151   2.363       .  S
O1144     Zr1170   2.342       .  S
O1144     Zr1173   2.343       .  S
O1145     Zr1171   2.355       .  S
O1145     Zr1172   2.315       .  S
H1150      O1151   0.963       .  S
O1151     Zr1170   2.311       .  S
O1151     Zr1172   2.348       .  S
H1152      O1153   0.963       .  S
O1153     Zr1171   2.343       .  S
O1153     Zr1173   2.367       .  S
O1154     Zr1170   2.469       .  S
O1154      C1177   1.295       .  A
O1155     Zr1171   2.491       .  S
O1155      C1178   1.306       .  A
O1156     Zr1172   2.458       .  S
O1156      C1179   1.293       .  A
O1157     Zr1173   2.508       .  S
O1157      C1180   1.309       .  A
O1158     Zr1173   2.466       .  S
O1158      C1181   1.294       .  A
O1159     Zr1172   2.519       .  S
O1159      C1182   1.312       .  A
O1160     Zr1174   2.500       .  S
O1160      C1183   1.307       .  A
O1161     Zr1174   2.453       .  S
O1161      C1184   1.292       .  A
O1162     Zr1172   2.396       .  S
O1162      C1183   1.282       .  A
O1163     Zr1173   2.463       .  S
O1163      C1184   1.300       .  A
O1164     Zr1170   2.460       .  S
O1164      C1179   1.299       .  A
O1165     Zr1171   2.398       .  S
O1165      C1182   1.283       .  A
O1166     Zr1171   2.474       .  S
O1166      C1181   1.302       .  A
O1167     Zr1170   2.380       .  S
O1167      C1180   1.279       .  A
O1168     Zr1174   2.467       .  S
O1168      C1177   1.301       .  A
O1169     Zr1174   2.397       .  S
O1169      C1178   1.283       .  A
Zr1170     O1176   2.338       .  S
Zr1170     O1188   2.366       .  S
Zr1171     O1175   2.316       .  S
Zr1171     O1186   2.354       .  S
Zr1172     O1176   2.359       .  S
Zr1172     O1186   2.351       .  S
Zr1173     O1175   2.332       .  S
Zr1173     O1188   2.321       .  S
Zr1174     O1175   2.357       .  S
Zr1174     O1176   2.317       .  S
Zr1174     O1188   2.350       .  S
Zr1174     O1186   2.351       .  S
H1185      O1186   0.966       .  S
H1187      O1188   0.962       .  S
O1189     Zr1225   2.507       .  S
O1189      C1200   1.309       .  A
O1190     Zr1224   2.465       .  S
O1190      C1201   1.294       .  A
O1191     Zr1197   2.452       .  S
O1191      C1202   1.291       .  A
O1192     Zr1197   2.492       .  S
O1192      C1203   1.306       .  A
O1193     Zr1227   2.401       .  S
O1193      C1203   1.284       .  A
O1194     Zr1226   2.467       .  S
O1194      C1202   1.301       .  A
O1195     Zr1197   2.469       .  S
O1195      C1201   1.301       .  A
O1196     Zr1197   2.399       .  S
O1196      C1200   1.283       .  A
Zr1197     O1198   2.316       .  S
Zr1197     O1199   2.354       .  S
Zr1197     O1207   2.352       .  S
Zr1197     O1205   2.346       .  S
O1198     Zr1224   2.332       .  S
O1198     Zr1227   2.356       .  S
O1199     Zr1225   2.316       .  S
O1199     Zr1226   2.331       .  S
H1204      O1205   0.962       .  S
O1205     Zr1224   2.367       .  S
O1205     Zr1226   2.317       .  S
H1206      O1207   0.965       .  S
O1207     Zr1225   2.354       .  S
O1207     Zr1227   2.349       .  S
O1208     Zr1224   2.509       .  S
O1208      C1231   1.310       .  A
O1209     Zr1225   2.464       .  S
O1209      C1232   1.294       .  A
O1210     Zr1226   2.520       .  S
O1210      C1233   1.311       .  A
O1211     Zr1227   2.460       .  S
O1211      C1234   1.293       .  A
O1212     Zr1227   2.501       .  S
O1212      C1235   1.308       .  A
O1213     Zr1226   2.470       .  S
O1213      C1236   1.296       .  A
O1214     Zr1228   2.529       .  S
O1214      C1237   1.313       .  A
O1215     Zr1228   2.470       .  S
O1215      C1238   1.295       .  A
O1216     Zr1226   2.378       .  S
O1216      C1237   1.279       .  A
O1217     Zr1227   2.469       .  S
O1217      C1238   1.301       .  A
O1218     Zr1224   2.384       .  S
O1218      C1233   1.281       .  A
O1219     Zr1225   2.473       .  S
O1219      C1236   1.302       .  A
O1220     Zr1225   2.396       .  S
O1220      C1235   1.283       .  A
O1221     Zr1224   2.468       .  S
O1221      C1234   1.300       .  A
O1222     Zr1228   2.374       .  S
O1222      C1231   1.279       .  A
O1223     Zr1228   2.469       .  S
O1223      C1232   1.301       .  A
Zr1224     O1230   2.344       .  S
Zr1224     O1242   2.313       .  S
Zr1225     O1229   2.356       .  S
Zr1225     O1240   2.351       .  S
Zr1226     O1230   2.341       .  S
Zr1226     O1240   2.369       .  S
Zr1227     O1229   2.323       .  S
Zr1227     O1242   2.344       .  S
Zr1228     O1229   2.337       .  S
Zr1228     O1230   2.342       .  S
Zr1228     O1242   2.370       .  S
Zr1228     O1240   2.313       .  S
H1239      O1240   0.962       .  S
H1241      O1242   0.963       .  S
O1243      C2766   1.312       .  A
O1244     Zr1278   2.449       .  S
O1244      C1255   1.291       .  A
O1245     Zr1251   2.522       .  S
O1246     Zr1251   2.466       .  S
O1246      C1257   1.295       .  A
O1247     Zr1281   2.466       .  S
O1247      C1257   1.300       .  A
O1248     Zr1280   2.380       .  S
O1248      C1256   1.280       .  A
O1249     Zr1251   2.472       .  S
O1249      C1255   1.302       .  A
O1250     Zr1251   2.381       .  S
O1250      C1254   1.280       .  A
Zr1251     O1252   2.333       .  S
Zr1251     O1261   2.367       .  S
O1252     Zr1278   2.355       .  S
O1252     Zr1281   2.316       .  S
O1253     Zr2791   2.343   1_455  S
O1253     Zr1280   2.342       .  S
C1254      O2755   1.312       .  A
H1258      O1259   0.963       .  S
O1259     Zr1280   2.364       .  S
H1260      O1261   0.963       .  S
O1261     Zr2035   2.317   1_455  S
O1261     Zr1281   2.352       .  S
O1262      C1285   1.307   1_455  A
O1263     Zr1279   2.468       .  S
O1263      C1286   1.295       .  A
O1264     Zr1280   2.470       .  S
O1264      C1287   1.295       .  A
O1265     Zr1281   2.506       .  S
O1265      C1288   1.309       .  A
O1266     Zr2793   2.453       .  S
O1266      C1289   1.292       .  A
O1267     Zr2792   2.516       .  S
O1267      C1290   1.311       .  A
O1268     Zr1282   2.457       .  S
O1268      C1291   1.293       .  A
O1269     Zr1282   2.503       .  S
O1269      C1292   1.308   1_565  A
O1270     Zr2792   2.461       .  S
O1270      C1291   1.299       .  A
O1271     Zr2793   2.405       .  S
O1272      C1287   1.302       .  A
O1273     Zr1279   2.393       .  S
O1273      C1290   1.282       .  A
O1274      C1289   1.302       .  A
O1275     Zr1278   2.405       .  S
O1275      C1288   1.284       .  A
O1276     Zr1282   2.399       .  S
O1276      C2797   1.283       .  A
O1277     Zr1282   2.473       .  S
O1277      C1286   1.302       .  A
Zr1279     O2765   2.344       .  S
Zr1279     O2017   2.317   1_565  S
Zr1279     O1283   2.338   1_565  S
Zr1279     O1294   2.366       .  S
Zr1280     O2779   2.517   1_455  S
Zr1280     O2782   2.459   1_455  S
Zr1280     O1284   2.334       .  S
Zr1280     O2806   2.316   1_455  S
Zr1281     O2778   2.452   1_455  S
Zr1281     O2783   2.405   1_455  S
Zr1281     O2039   2.358   1_455  S
Zr1282     O1283   2.317   1_565  S
Zr1282     O2796   2.359       .  S
Zr1282     O2808   2.354       .  S
Zr1282     O1294   2.350       .  S
O1283     Zr2037   2.357       .  S
O1284     Zr2794   2.359   1_455  S
C1285      C2321   1.470       .  S
C1285      O2788   1.283       .  A
H1293      O1294   0.961       .  S
O1294     Zr2792   2.318       .  S
O1296     Zr2794   2.355   1_455  S
C1297      C1298   1.400       .  A
C1297      C1302   1.409       .  A
C1298      C1299   1.391       .  A
C1298      H1307   1.084       .  S
C1299      C1300   1.410       .  A
C1299      S1303   1.805       .  S
C1300      C1301   1.399       .  A
C1301      C1302   1.388       .  A
C1301      H1308   1.085       .  S
C1302      S1304   1.805       .  S
S1303      H1306   1.406       .  S
S1304      H1305   1.406       .  S
C1309      C1310   1.396       .  A
C1309      C1314   1.410       .  A
C1310      C1311   1.389       .  A
C1310      H1319   1.085       .  S
C1311      C2824   1.410   1_455  A
C1311      S1315   1.804   1_554  S
C1312      C2823   1.410       .  A
C1312      C2825   1.398       .  A
C1313      C2824   1.397       .  A
C1313      C1314   1.390   1_655  A
C1313      H2832   1.085       .  S
C1314      S1316   1.805   1_455  S
S1315      H2830   1.403   1_556  S
S1316      H1317   1.402   1_655  S
H1318      S2827   1.403   1_554  S
H1320      C2825   1.084       .  S
C1321      C1322   1.396       .  A
C1321      C1326   1.409       .  A
C1322      C1323   1.392       .  A
C1322      H1331   1.084       .  S
C1323      C1324   1.413       .  A
C1323      S2839   1.809       .  S
C1324      C2457   1.444       .  S
C1324      C1325   1.397       .  A
C1325      C1326   1.389       .  A
C1325      H1332   1.084       .  S
C1326      S1328   1.807       .  S
S1327      C2835   1.809       .  S
S1327      H1330   1.404   1_655  S
S1328      H1329   1.406       .  S
C1334      C1335   1.389       .  A
C1335      C1336   1.404       .  A
C1335      S1339   1.804       .  S
C1336      C1337   1.407       .  A
C1337      C1338   1.386   1_565  A
C1337      H1344   1.084       .  S
S1339      H1342   1.406       .  S
S1340      H1341   1.407       .  S
C1345      C1346   1.396       .  A
C1345      C1350   1.409       .  A
C1346      C1347   1.390       .  A
C1346      H1355   1.085       .  S
C1347      C1348   1.411       .  A
C1347      S1351   1.808       .  S
C1348      C1349   1.396       .  A
C1349      C1350   1.387       .  A
C1349      H1356   1.085       .  S
C1350      S1352   1.806       .  S
S1351      H1354   1.401       .  S
C1357      C1358   1.400       .  A
C1357      C1362   1.409       .  A
C1358      C1359   1.393       .  A
C1358      H1367   1.084       .  S
C1359      C1360   1.410       .  A
C1359      S1363   1.805       .  S
C1360      C1361   1.399       .  A
C1361      C1362   1.389       .  A
C1361      H1368   1.085       .  S
C1362      S1364   1.806       .  S
S1363      H1366   1.407       .  S
S1364      H1365   1.407       .  S
C1369      C1370   1.396       .  A
C1369      C1374   1.409       .  A
C1370      C1371   1.390       .  A
C1370      H1379   1.085       .  S
C1371      C1372   1.411       .  A
C1371      S1375   1.804       .  S
C1372      C1373   1.398       .  A
C1373      C1374   1.390       .  A
C1373      H1380   1.084       .  S
C1374      S2888   1.806       .  S
S1376      C2886   1.807   1_455  S
S1376      H1377   1.406       .  S
C1381      C1382   1.396       .  A
C1381      C1386   1.410       .  A
C1382      C1383   1.388       .  A
C1382      H1391   1.085       .  S
C1383      C1384   1.409       .  A
C1383      S1387   1.805       .  S
C1384      C1385   1.397       .  A
C1385      C1386   1.390       .  A
C1385      H1392   1.084       .  S
C1386      S1388   1.806       .  S
S1387      H1390   1.404       .  S
S1388      H1389   1.404       .  S
C1393      C1394   1.400   1_565  A
C1393      C1398   1.410       .  A
C1394      H1403   1.084       .  S
C1395      C1396   1.409       .  A
C1395      S1399   1.803       .  S
C1397      C1398   1.389       .  A
C1398      S1400   1.805       .  S
S1399      H1402   1.407       .  S
S1400      H1401   1.407       .  S
C1405      C1406   1.396       .  A
C1405      C1410   1.409       .  A
C1406      C1407   1.385       .  A
C1406      H1415   1.085       .  S
C1407      C1408   1.408       .  A
C1407      S1411   1.806       .  S
C1408      C1409   1.398       .  A
C1409      C1410   1.391       .  A
C1409      H1416   1.084       .  S
C1410      S1412   1.807       .  S
S1411      H1414   1.405       .  S
S1412      H1413   1.404       .  S
C1417      C1418   1.400       .  A
C1417      C1422   1.409       .  A
C1418      C1419   1.390       .  A
C1418      H2939   1.085       .  S
C1419      C1420   1.407       .  A
C1419      S2935   1.804       .  S
C1420      C1421   1.400       .  A
C1421      C1422   1.389       .  A
C1421      H1428   1.085       .  S
C1422      S1424   1.806       .  S
S1423      C2931   1.804   1_455  S
S1423      H2938   1.407   1_455  S
S1424      H1425   1.407       .  S
H1426      S2935   1.407       .  S
H1427      C2930   1.085   1_455  S
C1429      C1430   1.394       .  A
C1429      C1434   1.406       .  A
C1430      C1431   1.387       .  A
C1430      H1439   1.085       .  S
C1431      C1432   1.410       .  A
C1431      S1435   1.805       .  S
C1432      C1433   1.398       .  A
C1433      C1434   1.393       .  A
C1433      H1440   1.084       .  S
C1434      S1436   1.808       .  S
S1435      H1438   1.403       .  S
S1436      H1437   1.407       .  S
C1441      C1442   1.393       .  A
C1441      C1446   1.413       .  A
C1442      C1443   1.384       .  A
C1442      H1451   1.085       .  S
C1443      C1444   1.411       .  A
C1443      S1447   1.806       .  S
C1444      C1445   1.393       .  A
C1445      C1446   1.388       .  A
C1445      H1452   1.084       .  S
C1446      S1448   1.804       .  S
S1447      H1450   1.407       .  S
S1448      H1449   1.406       .  S
C1453      C1454   1.393       .  A
C1453      C1458   1.411       .  A
C1454      C1455   1.387       .  A
C1454      H1463   1.084       .  S
C1455      C1456   1.415       .  A
C1455      S1459   1.805       .  S
C1456      C1457   1.394       .  A
C1457      C1458   1.385       .  A
C1457      H1464   1.085       .  S
C1458      S1460   1.806       .  S
S1459      H1462   1.406       .  S
S1460      H1461   1.408       .  S
C1465      C1466   1.397       .  A
C1465      C1470   1.409       .  A
C1466      C1467   1.389       .  A
C1466      H1475   1.085       .  S
C1467      C1468   1.409       .  A
C1467      S1471   1.804       .  S
C1468      C1469   1.396       .  A
C1469      C1470   1.386       .  A
C1469      H1476   1.085       .  S
C1470      S1472   1.806   1_554  S
S1471      H1474   1.404       .  S
S1472      H1473   1.405       .  S
C1477      C2990   1.400       .  A
C1477      C1482   1.409       .  A
C1478      C2989   1.400   1_455  A
C1478      C1479   1.393       .  A
C1478      H1487   1.084       .  S
C1479      C1480   1.410       .  A
C1479      S1483   1.805       .  S
C1480      C1481   1.399       .  A
C1481      C2994   1.388   1_455  A
C1481      H1488   1.085       .  S
C1482      C2993   1.389       .  A
C1482      S1484   1.805       .  S
S1483      H1486   1.406       .  S
S1484      H1485   1.407       .  S
C1489      C1490   1.399       .  A
C1489      C1494   1.409       .  A
C1490      C1491   1.391       .  A
C1490      H1499   1.085       .  S
C1491      C1492   1.412       .  A
C1491      S1495   1.803       .  S
C1492      C1493   1.399       .  A
C1493      C1494   1.387       .  A
C1493      H1500   1.084       .  S
C1494      S1496   1.805       .  S
S1495      H1498   1.406       .  S
S1496      H1497   1.407       .  S
C1501      C2277   1.444       .  S
C1501      C1502   1.399       .  A
C1501      C1506   1.409       .  A
C1502      C1503   1.393       .  A
C1502      H1511   1.084       .  S
C1503      C1504   1.410       .  A
C1503      S1507   1.805       .  S
C1504      C1505   1.394       .  A
C1505      C1506   1.384       .  A
C1505      H1512   1.085       .  S
C1506      S1508   1.801       .  S
S1507      H1510   1.405       .  S
S1508      H1509   1.403       .  S
C1513      C1902   1.486       .  S
C1513      N2270   1.356       .  A
C1513      N2274   1.379       .  A
N1514      C2269   1.357   1_545  A
N1514      C1515   1.346       .  A
C1515      C2260   1.439       .  S
C1515      N1516   1.338       .  A
N1516      C1517   1.343       .  A
C1517      C1740   1.475       .  S
C1517      N1518   1.378       .  A
N1518      C2269   1.379   1_545  A
C1519      C1933   1.491       .  S
C1519      N1520   1.356       .  A
C1519      N1524   1.376       .  A
N1520      C1521   1.349       .  A
C1521      N1522   1.344       .  A
N1522      C1523   1.345       .  A
C1523      C2010   1.476       .  S
C1523      N1524   1.378       .  A
C1525      C2498   1.493       .  S
C1525      N1526   1.357       .  A
C1525      N1530   1.380       .  A
N1526      C1527   1.351       .  A
C1527      C2248   1.451       .  S
C1527      N1528   1.341       .  A
N1528      C1529   1.341       .  A
C1529      C1938   1.479       .  S
C1529      N1530   1.379       .  A
C1531      C1778   1.490       .  S
C1531      N1532   1.377       .  A
C1531      N1536   1.358       .  A
N1532      C1533   1.378       .  A
C1533      C1794   1.471       .  S
C1533      N1534   1.339       .  A
N1534      C1535   1.341       .  A
C1535      C2245   1.447       .  S
C1535      N1536   1.351       .  A
C1537      C2047   1.486       .  S
C1537      N1538   1.358       .  A
C1537      N1542   1.377       .  A
N1538      C1539   1.350       .  A
C1539      C2233   1.450       .  S
C1539      N1540   1.342       .  A
N1540      C1541   1.344       .  A
C1541      C1848   1.475       .  S
C1541      N1542   1.376       .  A
C1543      C2013   1.488       .  S
C1543      N1544   1.374       .  A
C1543      N1548   1.358       .  A
N1544      C1545   1.375       .  A
C1545      C1936   1.468       .  S
C1545      N1546   1.342       .  A
N1546      C1547   1.342       .  A
C1547      C2236   1.449       .  S
C1547      N1548   1.352       .  A
C1549      C1797   1.491       .  S
C1549      N1550   1.357       .  A
C1549      N1554   1.376   1_554  A
N1550      C1551   1.350       .  A
C1551      C2221   1.438       .  S
C1551      N1552   1.340   1_554  A
N1552      C1553   1.342       .  A
C1553      C1771   1.471       .  S
C1553      N1554   1.378       .  A
C1555      C1831   1.488       .  S
C1555      N1556   1.379       .  A
C1555      N1560   1.355       .  A
N1556      C1557   1.379       .  A
C1557      C1956   1.476       .  S
C1557      N1558   1.343       .  A
N1558      C1559   1.339       .  A
C1559      C2224   1.438       .  S
C1559      N1560   1.346       .  A
C1561      C1850   1.483       .  S
C1561      N1562   1.357       .  A
C1561      N1566   1.377       .  A
C1563      C2212   1.443       .  S
C1563      N1564   1.338       .  A
C1565      N1566   1.376       .  A
C1567      C2642   1.488       .  S
C1567      N1568   1.376       .  A
C1567      N1572   1.357       .  A
N1568      C1569   1.377       .  A
C1569      C1987   1.467       .  S
C1569      N1570   1.339       .  A
N1570      C1571   1.339       .  A
C1571      C2209   1.441       .  S
C1571      N1572   1.349       .  A
C1573      C1958   1.485       .  S
C1573      N1574   1.356       .  A
C1573      N1578   1.378       .  A
N1574      C1575   1.347       .  A
C1575      C2197   1.438       .  S
C1575      N1576   1.336       .  A
N1576      C1577   1.340       .  A
C1577      C1825   1.469       .  S
C1577      N1578   1.378       .  A
C1579      C1994   1.490       .  S
C1579      N2336   1.357       .  A
C1579      N2340   1.377       .  A
N1580      C2335   1.357       .  A
N1580      C1581   1.348       .  A
C1581      C2200   1.438       .  S
C1581      N1582   1.339       .  A
N1582      C1583   1.339       .  A
C1583      C1879   1.469       .  S
C1583      N1584   1.378       .  A
N1584      C2335   1.377       .  A
C1585      N1586   1.356       .  A
C1585      N1590   1.376       .  A
N1586      C1587   1.346       .  A
C1587      C2185   1.438       .  S
C1587      N1588   1.339       .  A
N1588      C1589   1.344       .  A
C1589      C1934   1.469       .  S
C1589      N1590   1.375       .  A
C1591      C1741   1.489       .  S
C1591      N1592   1.376       .  A
C1591      N1596   1.356       .  A
N1592      C1593   1.378       .  A
C1593      C2552   1.472       .  S
C1593      N2350   1.343   1_545  A
N1594      C2349   1.343       .  A
N1594      C1595   1.341       .  A
C1595      C2188   1.438       .  S
C1595      N2352   1.348       .  A
N1596      C2351   1.349   1_545  A
C1597      C1904   1.490       .  S
C1597      N1598   1.377       .  A
C1597      N1602   1.355       .  A
N1598      C1599   1.378       .  A
C1599      C2046   1.479       .  S
C1599      N1600   1.345       .  A
N1600      C1601   1.345       .  A
C1601      C2176   1.445       .  S
C1601      N1602   1.350       .  A
C1603      C1940   1.485       .  S
N1604      C1605   1.349       .  A
C1605      C2173   1.444       .  S
C1605      N1606   1.340       .  A
N1606      C1607   1.342       .  A
C1607      C1775   1.470       .  S
C1607      N1608   1.376       .  A
C1609      C2011   1.486       .  S
C1609      N1610   1.379       .  A
C1609      N1614   1.357       .  A
N1610      C1611   1.378       .  A
C1611      C1851   1.471       .  S
C1611      N1612   1.341       .  A
N1612      C1613   1.336       .  A
C1613      C2161   1.436       .  S
C1613      N1614   1.347       .  A
C1615      C2042   1.492       .  S
C1615      N1616   1.356       .  A
C1615      N1620   1.377       .  A
N1616      C1617   1.350       .  A
C1617      C2164   1.437       .  S
C1617      N1618   1.342       .  A
N1618      C1619   1.342       .  A
C1619      C1903   1.473       .  S
C1619      N1620   1.379       .  A
C1621      C1827   1.491       .  S
C1621      N1622   1.375   1_554  A
C1621      N1626   1.357       .  A
N1622      C1623   1.377       .  A
C1623      C1773   1.473       .  S
C1623      N1624   1.343       .  A
N1624      C1625   1.344   1_556  A
C1625      C2152   1.451       .  S
C1625      N1626   1.352       .  A
C1627      C1829   1.490       .  S
C1627      N1628   1.359       .  A
C1627      N1632   1.377       .  A
N1628      C1629   1.351       .  A
C1629      C2149   1.453       .  S
C1629      N1630   1.342       .  A
N1630      C1631   1.343       .  A
C1631      C1991   1.475       .  S
C1631      N1632   1.377       .  A
C1633      C1882   1.490       .  S
C1633      N1634   1.380       .  A
C1633      N1638   1.358       .  A
N1634      C1635   1.379       .  A
C1635      C2044   1.476       .  S
C1635      N1636   1.342       .  A
N1636      C1637   1.338       .  A
C1637      C2137   1.438       .  S
C1637      N1638   1.348       .  A
C1639      N1640   1.356       .  A
C1639      N1644   1.376       .  A
N1640      C1641   1.347       .  A
C1641      C2140   1.440       .  S
C1641      N1642   1.342       .  A
N1642      C1643   1.345       .  A
C1643      C1989   1.475       .  S
C1643      N1644   1.379       .  A
C1645      C1957   1.488       .  S
N1646      C1647   1.377       .  A
C1647      C1885   1.470       .  S
C1647      N1648   1.343       .  A
N1648      C1649   1.341       .  A
C1649      C2125   1.441       .  S
C1649      N1650   1.350       .  A
C1651      C1988   1.494       .  S
C1651      N1652   1.378       .  A
C1651      N1656   1.359       .  A
N1652      C1653   1.378       .  A
C1653      C1832   1.475       .  S
C1653      N1654   1.344       .  A
N1654      C1655   1.340       .  A
C1655      C2884   1.447       .  S
C1655      N1656   1.352       .  A
C1657      C1849   1.493       .  S
C1657      N1658   1.359       .  A
C1657      N1662   1.377       .  A
N1658      C1659   1.352       .  A
C1659      C2116   1.448       .  S
C1659      N1660   1.343       .  A
N1660      C1661   1.342       .  A
C1661      C1993   1.476       .  S
C1661      N1662   1.378       .  A
C1663      C1880   1.489       .  S
C1663      N1664   1.359       .  A
C1663      N1668   1.378       .  A
N1664      C2421   1.350   1_545  A
C1665      C2113   1.449       .  S
C1665      N2420   1.349       .  A
C1665      N1666   1.342       .  A
N1666      C2423   1.344       .  A
C1667      C2804   1.478       .  S
C1667      N2422   1.344   1_545  A
C1667      N1668   1.377       .  A
C1669      C1935   1.483       .  S
C1669      N1670   1.358       .  A
C1669      N1674   1.376       .  A
N1670      C1671   1.348       .  A
C1671      C2104   1.439       .  S
C1671      N1672   1.338       .  A
N1672      C1673   1.342       .  A
C1673      C1743   1.468       .  S
C1673      N1674   1.375       .  A
C1675      C1937   1.491       .  S
C1675      N1676   1.355       .  A
C1675      N1680   1.377       .  A
N1676      C1677   1.348       .  A
C1677      C2857   1.438       .  S
C1677      N1678   1.342       .  A
N1678      C1679   1.343       .  A
C1679      C2012   1.475       .  S
C1679      N1680   1.379       .  A
C1681      C2045   1.490       .  S
C1681      N1682   1.379       .  A
C1681      N1686   1.359       .  A
N1682      C1683   1.376       .  A
C1683      C1883   1.468       .  S
C1683      N1684   1.338       .  A
N1684      C1685   1.336       .  A
C1685      C2089   1.449       .  S
C1685      N1686   1.353       .  A
C1687      C2043   1.494       .  S
C1687      N1688   1.360       .  A
C1687      N1692   1.378       .  A
N1688      C1689   1.353       .  A
C1689      C2092   1.451       .  S
C1689      N1690   1.340       .  A
N1690      C1691   1.339       .  A
C1691      C1905   1.472       .  S
C1691      N1692   1.378       .  A
C1693      C1992   1.492       .  S
C1693      N1694   1.377       .  A
C1693      N1698   1.356       .  A
N1694      C1695   1.378       .  A
C1695      C1881   1.477       .  S
C1695      N1696   1.345       .  A
N1696      C1697   1.344       .  A
C1697      C2077   1.443       .  S
C1697      N1698   1.350       .  A
C1699      C1990   1.490       .  S
C1699      N1700   1.358       .  A
C1699      N1704   1.378       .  A
N1700      C1701   1.350       .  A
C1701      N1702   1.339       .  A
N1702      C1703   1.344       .  A
C1703      C1828   1.472       .  S
C1703      N1704   1.377       .  A
C1705      C1826   1.487       .  S
C1705      N1706   1.356       .  A
C1705      N1710   1.376   1_554  A
N1706      C1707   1.349       .  A
C1707      C2068   1.440       .  S
C1707      N1708   1.341   1_554  A
N1708      C1709   1.343       .  A
C1709      C1777   1.473       .  S
C1709      N1710   1.378       .  A
C1711      C1795   1.485       .  S
C1711      N1712   1.356       .  A
C1711      N1716   1.376       .  A
N1712      C1713   1.348       .  A
C1713      C2065   1.441       .  S
C1713      N1714   1.339       .  A
N1714      C1715   1.344       .  A
C1715      C1959   1.470       .  S
C1715      N1716   1.376       .  A
C1717      C1774   1.485       .  S
C1717      N1718   1.375       .  A
C1717      N1722   1.357       .  A
N1718      C1719   1.375       .  A
C1719      C1939   1.470       .  S
C1719      N1720   1.343       .  A
N1720      C1721   1.343       .  A
C1721      C2056   1.450       .  S
C1721      N1722   1.351       .  A
C1723      C1776   1.489       .  S
C1723      N1724   1.376       .  A
C1723      N1728   1.359       .  A
N1724      C1725   1.376       .  A
N1726      C1727   1.342       .  A
C1727      C2053   1.451       .  S
O1729     Zr1765   2.499       .  S
O1729      C1740   1.307       .  A
O1730     Zr1764   2.465       .  S
O1730      C1741   1.294       .  A
O1731     Zr1737   2.461       .  S
O1731      C1742   1.293       .  A
O1732     Zr1737   2.497       .  S
O1732      C1743   1.307       .  A
O1733     Zr1767   2.394       .  S
O1733      C1743   1.282       .  A
O1734     Zr1766   2.471       .  S
O1734      C1742   1.302       .  A
O1735     Zr1737   2.472       .  S
O1735      C1741   1.302       .  A
O1736     Zr1737   2.402       .  S
O1736      C1740   1.283       .  A
Zr1737     O1738   2.321       .  S
Zr1737     O1739   2.354       .  S
Zr1737     O1747   2.353       .  S
Zr1737     O1745   2.350       .  S
O1738     Zr1764   2.335       .  S
O1738     Zr1767   2.359       .  S
O1739     Zr1765   2.314       .  S
O1739     Zr1766   2.334       .  S
C1742      C2281   1.492   1_545  S
H1744      O1745   0.962       .  S
O1745     Zr1764   2.366       .  S
O1745     Zr1766   2.316       .  S
H1746      O1747   0.966       .  S
O1747     Zr1765   2.348       .  S
O1747     Zr1767   2.354       .  S
O1748     Zr1764   2.515       .  S
O1748      C1771   1.311       .  A
O1749     Zr1765   2.448       .  S
O1749      C1772   1.291       .  A
O1750     Zr1766   2.526       .  S
O1750      C1773   1.313       .  A
O1751     Zr1767   2.456       .  S
O1751      C1774   1.292       .  A
O1752     Zr1767   2.499       .  S
O1752      C1775   1.307       .  A
O1753     Zr1766   2.471       .  S
O1753      C1776   1.296       .  A
O1754     Zr1768   2.519       .  S
O1754      C1777   1.311       .  A
O1755     Zr1768   2.468       .  S
O1755      C1778   1.295       .  A
O1756     Zr1766   2.382       .  S
O1756      C1777   1.280       .  A
O1757     Zr1767   2.473       .  S
O1757      C1778   1.302       .  A
O1758     Zr1764   2.376       .  S
O1758      C1773   1.279       .  A
O1759     Zr1765   2.465       .  S
O1759      C1776   1.300       .  A
O1760     Zr1765   2.395       .  S
O1760      C1775   1.282       .  A
O1761     Zr1764   2.459       .  S
O1761      C1774   1.299       .  A
O1762     Zr1768   2.379       .  S
O1762      C1771   1.279       .  A
O1763     Zr1768   2.463       .  S
O1763      C1772   1.300       .  A
Zr1764     O1770   2.341       .  S
Zr1764     O1782   2.313       .  S
Zr1765     O1769   2.356       .  S
Zr1765     O1780   2.346       .  S
Zr1766     O1770   2.342       .  S
Zr1766     O1780   2.365       .  S
Zr1767     O1769   2.314       .  S
Zr1767     O1782   2.346       .  S
Zr1768     O1769   2.333       .  S
Zr1768     O1770   2.341       .  S
Zr1768     O1782   2.365       .  S
Zr1768     O1780   2.312       .  S
H1779      O1780   0.962       .  S
H1781      O1782   0.962       .  S
O1783     Zr1819   2.520       .  S
O1783      C1794   1.312       .  A
O1784     Zr1818   2.453       .  S
O1784      C1795   1.292       .  A
O1785     Zr1791   2.514       .  S
O1785      C1796   1.310       .  A
O1786      C1797   1.295   1_556  A
O1787     Zr1821   2.475       .  S
O1787      C1797   1.302       .  A
O1788     Zr1820   2.384       .  S
O1788      C2552   1.280       .  A
O1789     Zr1791   2.462   1_554  S
O1789      C1795   1.300       .  A
O1790      C1794   1.278       .  A
Zr1791     O1792   2.332   1_556  S
Zr1791     O1793   2.342       .  S
Zr1791     O1799   2.316   1_556  S
O1792     Zr1818   2.357       .  S
O1793     Zr2576   2.343       .  S
C1796      C2349   1.473       .  S
C1796      O2544   1.281       .  A
H1798      O1799   0.962   1_556  S
O1799     Zr1818   2.343       .  S
O1799     Zr2576   2.365   1_554  S
H1800      O1801   0.961   1_556  S
O1801     Zr1819   2.312   1_554  S
O1801     Zr1821   2.348       .  S
O1802     Zr2574   2.496       .  S
O1802      C1825   1.307       .  A
O1803     Zr2575   2.462   1_545  S
O1803      C1826   1.294   1_556  A
O1804     Zr1820   2.469       .  S
O1804      C1827   1.295   1_556  A
O1805     Zr1821   2.503   1_455  S
O1806     Zr1821   2.464       .  S
O1806      C1829   1.294       .  A
O1807     Zr1820   2.514       .  S
O1807      C1830   1.311       .  A
O1808     Zr1822   2.451       .  S
O1808      C1831   1.291       .  A
O1809      C2588   1.309       .  A
O1810     Zr1820   2.473   1_554  S
O1810      C1831   1.302       .  A
O1811     Zr1821   2.398       .  S
O1811      C1832   1.283       .  A
O1812     Zr2574   2.468       .  S
O1812      C1827   1.301       .  A
O1813     Zr2575   2.385   1_545  S
O1814     Zr1819   2.465   1_554  S
O1814      C1829   1.300       .  A
O1815     Zr1818   2.397       .  S
O1815      C1828   1.283       .  A
O1816     Zr1822   2.393       .  S
O1816      C1825   1.282       .  A
O1817      C1826   1.301       .  A
Zr1818     O2558   2.498       .  S
Zr1818     O2568   2.468       .  S
Zr1818     O2580   2.313       .  S
Zr1818     O1836   2.350       .  S
Zr1819     O2559   2.464       .  S
Zr1819     O2569   2.380       .  S
Zr1819     O1823   2.336   1_556  S
Zr1820     O2549   2.342   1_545  S
Zr1820     O2555   2.365   1_546  S
Zr1820     O1824   2.329   1_556  S
Zr1820     O1834   2.318   1_556  S
Zr1821     O1823   2.357       .  S
Zr1822     O1824   2.357       .  S
Zr1822     O2592   2.349   1_545  S
Zr1822     O1834   2.351       .  S
O1824     Zr2574   2.312       .  S
C1832      O2565   1.309       .  A
H1833      O1834   0.963   1_556  S
H1835      O1836   0.965       .  S
O1836     Zr2578   2.348       .  S
O1837     Zr1873   2.504       .  S
O1837      C1848   1.308       .  A
O1838     Zr1872   2.470       .  S
O1838      C1849   1.296       .  A
O1839     Zr1845   2.452       .  S
O1839      C1850   1.292       .  A
O1840     Zr1845   2.499       .  S
O1840      C1851   1.308       .  A
O1841     Zr1875   2.394       .  S
O1841      C1851   1.282       .  A
O1842     Zr1874   2.461       .  S
O1842      C1850   1.300       .  A
O1843     Zr1845   2.470       .  S
O1843      C1849   1.301       .  A
O1844     Zr1845   2.402       .  S
O1844      C1848   1.283       .  A
Zr1845     O1846   2.315       .  S
Zr1845     O1847   2.356       .  S
Zr1845     O1855   2.352       .  S
Zr1845     O1853   2.348       .  S
O1846     Zr1872   2.332       .  S
O1846     Zr1875   2.356       .  S
O1847     Zr1873   2.317       .  S
O1847     Zr1874   2.335       .  S
H1852      O1853   0.964       .  S
O1853     Zr1872   2.365       .  S
O1853     Zr1874   2.317       .  S
H1854      O1855   0.966       .  S
O1855     Zr1873   2.354       .  S
O1855     Zr1875   2.355       .  S
O1856     Zr1872   2.518       .  S
O1856      C1879   1.312       .  A
O1857     Zr1873   2.462       .  S
O1857      C1880   1.293       .  A
O1858     Zr1874   2.517       .  S
O1858      C1881   1.311       .  A
O1859     Zr1875   2.459       .  S
O1859      C1882   1.293       .  A
O1860     Zr1875   2.504       .  S
O1860      C1883   1.309       .  A
O1861     Zr1874   2.469       .  S
O1861      C1884   1.295   1_655  A
O1862     Zr1876   2.515       .  S
O1862      C1885   1.311       .  A
O1863     Zr1876   2.466       .  S
O1863      C1886   1.294       .  A
O1864     Zr1874   2.377       .  S
O1864      C1885   1.279       .  A
O1865     Zr1875   2.470       .  S
O1865      C1886   1.301       .  A
O1866     Zr1872   2.388       .  S
O1866      C1881   1.281       .  A
O1867     Zr1873   2.467       .  S
O1867      C1884   1.301   1_655  A
O1868     Zr1873   2.389       .  S
O1868      C1883   1.281       .  A
O1869     Zr1872   2.468       .  S
O1869      C1882   1.301       .  A
O1870     Zr1876   2.375       .  S
O1870      C1879   1.278       .  A
O1871     Zr1876   2.463       .  S
O1871      C1880   1.300       .  A
Zr1872     O1878   2.341       .  S
Zr1872     O1890   2.315       .  S
Zr1873     O1877   2.356       .  S
Zr1873     O1888   2.347       .  S
Zr1874     O1878   2.342       .  S
Zr1874     O1888   2.369       .  S
Zr1875     O1877   2.312       .  S
Zr1875     O1890   2.345       .  S
Zr1876     O1877   2.330       .  S
Zr1876     O1878   2.342       .  S
Zr1876     O1890   2.365       .  S
Zr1876     O1888   2.314       .  S
C1886      C2323   1.488   1_545  S
H1887      O1888   0.962       .  S
H1889      O1890   0.963       .  S
O1891     Zr1927   2.451       .  S
O1891      C1902   1.291       .  A
O1892     Zr1926   2.523       .  S
O1892      C1903   1.312       .  A
O1893     Zr1899   2.464       .  S
O1893      C1904   1.294       .  A
O1894     Zr1899   2.521       .  S
O1894      C1905   1.312       .  A
O1895     Zr1929   2.379       .  S
O1895      C1905   1.279       .  A
O1896     Zr1928   2.473       .  S
O1896      C1904   1.302       .  A
O1897     Zr1899   2.377       .  S
O1897      C1903   1.279       .  A
O1898     Zr1899   2.467       .  S
O1898      C1902   1.301       .  A
Zr1899     O1900   2.341       .  S
Zr1899     O1901   2.331       .  S
Zr1899     O1909   2.311       .  S
Zr1899     O1907   2.364       .  S
O1900     Zr1926   2.340       .  S
O1900     Zr1929   2.342       .  S
O1901     Zr1927   2.354       .  S
O1901     Zr1928   2.315       .  S
H1906      O1907   0.963       .  S
O1907     Zr1926   2.312       .  S
O1907     Zr1928   2.347       .  S
H1908      O1909   0.963       .  S
O1909     Zr1927   2.345       .  S
O1909     Zr1929   2.368       .  S
O1910     Zr1926   2.467       .  S
O1910      C1933   1.295       .  A
O1911     Zr1927   2.489       .  S
O1911      C1934   1.305       .  A
O1912     Zr1928   2.457       .  S
O1912      C1935   1.293       .  A
O1913     Zr1929   2.510       .  S
O1913      C1936   1.309       .  A
O1914     Zr1929   2.467       .  S
O1914      C1937   1.294       .  A
O1915     Zr1928   2.516       .  S
O1915      C1938   1.311       .  A
O1916     Zr1930   2.500       .  S
O1916      C1939   1.307       .  A
O1917     Zr1930   2.454       .  S
O1917      C1940   1.292       .  A
O1918     Zr1928   2.396       .  S
O1918      C1939   1.282       .  A
O1919     Zr1929   2.461       .  S
O1919      C1940   1.300       .  A
O1920     Zr1926   2.456       .  S
O1920      C1935   1.298       .  A
O1921     Zr1927   2.400       .  S
O1921      C1938   1.283       .  A
O1922     Zr1927   2.472       .  S
O1922      C1937   1.302       .  A
O1923     Zr1926   2.379       .  S
O1923      C1936   1.279       .  A
O1924     Zr1930   2.470       .  S
O1924      C1933   1.301       .  A
O1925     Zr1930   2.399       .  S
O1925      C1934   1.283       .  A
Zr1926     O1932   2.338       .  S
Zr1926     O1944   2.368       .  S
Zr1927     O1931   2.315       .  S
Zr1927     O1942   2.354       .  S
Zr1928     O1932   2.358       .  S
Zr1928     O1942   2.350       .  S
Zr1929     O1931   2.331       .  S
Zr1929     O1944   2.322       .  S
Zr1930     O1931   2.356       .  S
Zr1930     O1932   2.318       .  S
Zr1930     O1944   2.351       .  S
Zr1930     O1942   2.351       .  S
H1941      O1942   0.966       .  S
H1943      O1944   0.962       .  S
O1945     Zr1981   2.508       .  S
O1945      C1956   1.309       .  A
O1946     Zr1980   2.464       .  S
O1946      C1957   1.294       .  A
O1947     Zr1953   2.450       .  S
O1947      C1958   1.291       .  A
O1948     Zr1953   2.494       .  S
O1948      C1959   1.306       .  A
O1949     Zr1983   2.399       .  S
O1949      C1959   1.283       .  A
O1950     Zr1982   2.467       .  S
O1950      C1958   1.301       .  A
O1951     Zr1953   2.469       .  S
O1951      C1957   1.301       .  A
O1952     Zr1953   2.398       .  S
O1952      C1956   1.283       .  A
Zr1953     O1954   2.314       .  S
Zr1953     O1955   2.355       .  S
Zr1953     O1963   2.353       .  S
Zr1953     O1961   2.346       .  S
O1954     Zr1980   2.333       .  S
O1954     Zr1983   2.356       .  S
O1955     Zr1981   2.317       .  S
O1955     Zr1982   2.331       .  S
H1960      O1961   0.962       .  S
O1961     Zr1980   2.366       .  S
O1961     Zr1982   2.316       .  S
H1962      O1963   0.965       .  S
O1963     Zr1981   2.355       .  S
O1963     Zr1983   2.349       .  S
O1964     Zr1980   2.511       .  S
O1964      C1987   1.311       .  A
O1965     Zr1981   2.468       .  S
O1965      C1988   1.295       .  A
O1966     Zr1982   2.516       .  S
O1966      C1989   1.311       .  A
O1967     Zr1983   2.461       .  S
O1967      C1990   1.293       .  A
O1968     Zr1983   2.506       .  S
O1968      C1991   1.309       .  A
O1969     Zr1982   2.466       .  S
O1969      C1992   1.295       .  A
O1970     Zr1984   2.530       .  S
O1970      C1993   1.313       .  A
O1971     Zr1984   2.471       .  S
O1971      C1994   1.295       .  A
O1972     Zr1982   2.378       .  S
O1972      C1993   1.279       .  A
O1973     Zr1983   2.469       .  S
O1973      C1994   1.301       .  A
O1974     Zr1980   2.388       .  S
O1974      C1989   1.281       .  A
O1975     Zr1981   2.477       .  S
O1975      C1992   1.303       .  A
O1976     Zr1981   2.398       .  S
O1976      C1991   1.283       .  A
O1977     Zr1980   2.470       .  S
O1977      C1990   1.301       .  A
O1978     Zr1984   2.375       .  S
O1978      C1987   1.279       .  A
O1979     Zr1984   2.469       .  S
O1979      C1988   1.301       .  A
Zr1980     O1986   2.343       .  S
Zr1980     O1998   2.314       .  S
Zr1981     O1985   2.356       .  S
Zr1981     O1996   2.351       .  S
Zr1982     O1986   2.342       .  S
Zr1982     O1996   2.370       .  S
Zr1983     O1985   2.322       .  S
Zr1983     O1998   2.345       .  S
Zr1984     O1985   2.337       .  S
Zr1984     O1986   2.343       .  S
Zr1984     O1998   2.369       .  S
Zr1984     O1996   2.315       .  S
H1995      O1996   0.962       .  S
H1997      O1998   0.963       .  S
O1999     Zr2791   2.522   1_445  S
O2000     Zr2034   2.452   1_545  S
O2000      C2011   1.291       .  A
O2001     Zr2007   2.523   1_565  S
O2001      C2768   1.312       .  A
O2002     Zr2007   2.466       .  S
O2002      C2013   1.295       .  A
O2003     Zr2037   2.469       .  S
O2003      C2013   1.301       .  A
O2004     Zr2036   2.382       .  S
O2004      C2012   1.280       .  A
O2005     Zr2007   2.470       .  S
O2005      C2011   1.301       .  A
O2006     Zr2007   2.385       .  S
O2006      C2010   1.281       .  A
Zr2007     O2008   2.335       .  S
Zr2007     O2765   2.343   1_545  S
Zr2007     O2017   2.367       .  S
Zr2007     O2771   2.312   1_545  S
O2008     Zr2034   2.357   1_545  S
O2008     Zr2037   2.317       .  S
O2009     Zr2763   2.343       .  S
O2009     Zr2036   2.342       .  S
C2012      O2757   1.312       .  A
H2014      O2015   0.963       .  S
O2015     Zr2763   2.313       .  S
O2015     Zr2790   2.347       .  S
O2015     Zr2036   2.365       .  S
H2016      O2017   0.963       .  S
O2017     Zr2037   2.353       .  S
O2018     Zr2790   2.494       .  S
O2018      C2041   1.307       .  A
O2019     Zr2035   2.469       .  S
O2019      C2042   1.295       .  A
O2020     Zr2036   2.472       .  S
O2020      C2043   1.296       .  A
O2021     Zr2037   2.510       .  S
O2021      C2044   1.310       .  A
O2022      C2045   1.292       .  A
O2023      C2046   1.312       .  A
O2024     Zr2038   2.457       .  S
O2024      C2047   1.293       .  A
O2025     Zr2038   2.504       .  S
O2025      C2048   1.308       .  A
O2026      C2047   1.299       .  A
O2027      C2804   1.284       .  A
O2028     Zr2790   2.476       .  S
O2028      C2043   1.302       .  A
O2029     Zr2035   2.391       .  S
O2029      C2046   1.282       .  A
O2030     Zr2791   2.478   1_545  S
O2030      C2045   1.303       .  A
O2031     Zr2034   2.398   1_545  S
O2031      C2044   1.282       .  A
O2032     Zr2038   2.403       .  S
O2033     Zr2038   2.475       .  S
O2033      C2042   1.302       .  A
Zr2034     O2774   2.495       .  S
Zr2034     O2784   2.474       .  S
Zr2034     O2771   2.345       .  S
Zr2034     O2796   2.316       .  S
Zr2034     O2808   2.356       .  S
Zr2035     O2755   2.523   1_655  S
Zr2035     O2786   2.476       .  S
Zr2035     O2039   2.339       .  S
Zr2035     O2050   2.366       .  S
Zr2036     O2040   2.336       .  S
Zr2037     O2808   2.351   1_545  S
Zr2038     O2039   2.318       .  S
Zr2038     O2050   2.350       .  S
O2040     Zr2790   2.317       .  S
C2048      C2423   1.477       .  S
C2048      O2783   1.284       .  A
H2049      O2050   0.961       .  S
H2051      O2808   0.966       .  S
O2052     Zr2790   2.356       .  S
O2052     Zr2793   2.352       .  S
O2052      H2807   0.966       .  S
C2053      C2054   1.400       .  A
C2053      C2058   1.409       .  A
C2054      C2055   1.391       .  A
C2054      H2063   1.084       .  S
C2055      C2056   1.409       .  A
C2055      S2059   1.805       .  S
C2056      C2057   1.399       .  A
C2057      C2058   1.389       .  A
C2057      H2064   1.085       .  S
C2058      S2060   1.804       .  S
S2059      H2062   1.407       .  S
S2060      H2061   1.406       .  S
C2065      C2066   1.397       .  A
C2065      C2070   1.409       .  A
C2066      C2067   1.390       .  A
C2066      H2075   1.085       .  S
C2067      S2071   1.805   1_554  S
C2069      C2070   1.388       .  A
C2070      S2072   1.804       .  S
S2072      H2073   1.402       .  S
C2077      C2078   1.396       .  A
C2077      C2082   1.409       .  A
C2078      C2079   1.392       .  A
C2078      H2087   1.084       .  S
C2079      C2080   1.412       .  A
C2080      C2081   1.396       .  A
C2081      C2082   1.389       .  A
C2081      H2088   1.084       .  S
C2082      S2084   1.804       .  S
S2083      H2086   1.405       .  S
S2084      H2085   1.405       .  S
C2089      C2846   1.408   1_545  A
C2089      C2850   1.401       .  A
C2090      C2845   1.408       .  A
C2090      C2091   1.389       .  A
C2090      H2855   1.084       .  S
C2091      C2092   1.404       .  A
C2091      S2095   1.804       .  S
C2092      C2093   1.407       .  A
C2093      C2094   1.386       .  A
C2093      H2100   1.084       .  S
C2094      C2845   1.400       .  A
C2094      S2852   1.804       .  S
S2095      H2098   1.406       .  S
S2096      C2850   1.804       .  S
S2096      H2097   1.407       .  S
H2099      C2846   1.084       .  S
C2101      C2433   1.439   1_545  S
C2101      C2102   1.397       .  A
C2101      C2106   1.409       .  A
C2102      C2103   1.391       .  A
C2102      H2111   1.085       .  S
C2103      C2104   1.412       .  A
C2103      S2107   1.809       .  S
C2104      C2105   1.396       .  A
C2105      C2106   1.387       .  A
C2105      H2112   1.085       .  S
C2106      S2108   1.806       .  S
S2107      H2110   1.401       .  S
S2108      H2865   1.403   1_545  S
H2109      S2864   1.403       .  S
C2113      C2114   1.400       .  A
C2113      C2118   1.409       .  A
C2114      C2115   1.392       .  A
C2114      H2123   1.084       .  S
C2115      C2116   1.410       .  A
C2115      S2119   1.806       .  S
C2116      C2117   1.399       .  A
C2117      C2118   1.389       .  A
C2117      H2124   1.085       .  S
C2118      S2120   1.806       .  S
S2119      H2122   1.407       .  S
S2120      H2121   1.407       .  S
C2125      C2126   1.397       .  A
C2125      C2130   1.410       .  A
C2126      C2127   1.391       .  A
C2126      H2135   1.084       .  S
C2127      C2128   1.411       .  A
C2127      S2131   1.805       .  S
C2128      C2411   1.445   1_545  S
C2128      C2129   1.397       .  A
C2129      C2130   1.389       .  A
C2129      H2136   1.084       .  S
S2131      H2890   1.405   1_545  S
S2132      H2133   1.406       .  S
H2134      S2887   1.405       .  S
C2137      C2138   1.397       .  A
C2137      C2142   1.411       .  A
C2138      C2139   1.389       .  A
C2138      H2147   1.085       .  S
C2139      C2140   1.409       .  A
C2139      S2143   1.806       .  S
C2140      C2141   1.396       .  A
C2141      C2142   1.389       .  A
C2141      H2148   1.085       .  S
C2142      S2144   1.809       .  S
S2143      H2146   1.403       .  S
S2144      H2145   1.403       .  S
C2149      C2150   1.401       .  A
C2149      C2154   1.411       .  A
C2150      C2907   1.392       .  A
C2150      H2159   1.084       .  S
C2151      C2906   1.391       .  A
C2151      C2152   1.409       .  A
C2151      S2155   1.804       .  S
C2152      C2909   1.399   1_545  A
C2153      C2908   1.399       .  A
C2153      C2154   1.389       .  A
C2153      H2916   1.085       .  S
C2154      S2156   1.805       .  S
S2155      H2158   1.406       .  S
S2156      H2157   1.406       .  S
H2160      C2909   1.085       .  S
C2161      C2162   1.396       .  A
C2161      C2166   1.409       .  A
C2162      C2163   1.385       .  A
C2162      H2171   1.085       .  S
C2163      C2164   1.408       .  A
C2163      S2167   1.806       .  S
C2164      C2165   1.398       .  A
C2165      C2166   1.390       .  A
C2165      H2172   1.084       .  S
C2166      S2168   1.807       .  S
S2167      H2170   1.405       .  S
S2168      H2169   1.404       .  S
C2173      C2174   1.400       .  A
C2173      C2178   1.408       .  A
C2174      C2175   1.390       .  A
C2175      C2176   1.407       .  A
C2176      C2177   1.400       .  A
C2177      C2178   1.388       .  A
C2177      H2184   1.085       .  S
C2178      S2180   1.806       .  S
S2180      H2181   1.407       .  S
C2185      C2186   1.394       .  A
C2185      C2190   1.406       .  A
C2186      C2187   1.387       .  A
C2186      H2195   1.085       .  S
C2187      C2188   1.410       .  A
C2187      S2191   1.805       .  S
C2188      C2189   1.397       .  A
C2189      C2190   1.393       .  A
C2189      H2196   1.084       .  S
C2190      S2192   1.808       .  S
S2191      H2194   1.403       .  S
S2192      H2193   1.407       .  S
C2197      C2198   1.393       .  A
C2197      C2202   1.413       .  A
C2198      C2199   1.384       .  A
C2198      H2207   1.085       .  S
C2199      C2200   1.410       .  A
C2199      S2203   1.806       .  S
C2200      C2201   1.393       .  A
C2201      C2202   1.387       .  A
C2201      H2208   1.084       .  S
C2202      S2204   1.804       .  S
S2203      H2206   1.407   1_545  S
S2204      H2205   1.406       .  S
C2209      C2210   1.394       .  A
C2209      C2214   1.411       .  A
C2210      C2211   1.388       .  A
C2210      H2219   1.084       .  S
C2211      C2212   1.414       .  A
C2211      S2215   1.805       .  S
C2212      C2213   1.394       .  A
C2213      C2214   1.385       .  A
C2213      H2220   1.085       .  S
C2214      S2216   1.806       .  S
S2215      H2218   1.406       .  S
S2216      H2217   1.408       .  S
C2221      C2222   1.397       .  A
C2221      C2226   1.410       .  A
C2222      C2223   1.389       .  A
C2222      H2231   1.085       .  S
C2223      C2224   1.409       .  A
C2223      S2227   1.804       .  S
C2224      C2225   1.395       .  A
C2225      C2226   1.387       .  A
C2225      H2232   1.085       .  S
C2226      S2228   1.807   1_554  S
S2227      H2230   1.404       .  S
S2228      H2229   1.405       .  S
C2233      C2238   1.409       .  A
C2234      C2235   1.392       .  A
C2234      H2243   1.084       .  S
C2235      C2236   1.410       .  A
C2235      S2239   1.805       .  S
C2236      C2237   1.399       .  A
C2237      H2244   1.085       .  S
C2238      S2240   1.805       .  S
S2239      H2242   1.406       .  S
S2240      H2241   1.407       .  S
C2245      C2246   1.398       .  A
C2245      C2250   1.409       .  A
C2246      C2247   1.390       .  A
C2246      H2255   1.085       .  S
C2247      C2248   1.412       .  A
C2247      S2251   1.803       .  S
C2248      C2249   1.399       .  A
C2249      C2250   1.388       .  A
C2249      H2256   1.084       .  S
C2250      S2252   1.805       .  S
S2251      H2254   1.406       .  S
S2252      H2253   1.407       .  S
C2257      C2258   1.399       .  A
C2257      C2262   1.409       .  A
C2258      C2259   1.393       .  A
C2258      H2267   1.084       .  S
C2259      C2260   1.410       .  A
C2259      S2263   1.805   1_545  S
C2260      C2261   1.394       .  A
C2261      C2262   1.384       .  A
C2261      H2268   1.085       .  S
C2262      S2264   1.801       .  S
S2263      H2266   1.405       .  S
S2264      H2265   1.403   1_655  S
C2269      C2658   1.484       .  S
N2270      C2271   1.347       .  A
C2271      C3016   1.440       .  S
C2271      N2272   1.339       .  A
N2272      C2273   1.344       .  A
C2273      C2496   1.477       .  S
C2273      N2274   1.378       .  A
C2275      C2689   1.491       .  S
C2275      N2276   1.355       .  A
C2275      N2280   1.376       .  A
N2276      C2277   1.349       .  A
C2277      N2278   1.344       .  A
N2278      C2279   1.345       .  A
C2279      C2766   1.478       .  S
C2279      N2280   1.378       .  A
C2281      N2282   1.357       .  A
C2281      N2286   1.380       .  A
N2282      C2283   1.351       .  A
C2283      C3004   1.453       .  S
C2283      N2284   1.342       .  A
N2284      C2285   1.341       .  A
C2285      C2694   1.479       .  S
C2285      N2286   1.379       .  A
C2287      C2534   1.490       .  S
C2287      N2288   1.377       .  A
C2287      N2292   1.359       .  A
N2288      C2289   1.377       .  A
C2289      C2550   1.471       .  S
C2289      N2290   1.339       .  A
N2290      C2291   1.341       .  A
C2291      C3001   1.449       .  S
C2291      N2292   1.351       .  A
C2293      C2803   1.485       .  S
C2293      N2294   1.358       .  A
C2293      N2298   1.376       .  A
N2294      C2295   1.349       .  A
C2295      C2989   1.450       .  S
C2295      N2296   1.342       .  A
N2296      C2297   1.344       .  A
C2297      C2604   1.473       .  S
C2297      N2298   1.376       .  A
C2299      C2769   1.489       .  S
C2299      N2300   1.374       .  A
C2299      N2304   1.359       .  A
N2300      C2301   1.375       .  A
C2301      C2692   1.469       .  S
C2301      N2302   1.343       .  A
N2302      C2303   1.343       .  A
C2303      C2992   1.451       .  S
C2303      N2304   1.353       .  A
C2305      C2553   1.492       .  S
C2305      N2306   1.357       .  A
C2305      N2310   1.377   1_554  A
N2306      C2307   1.350       .  A
C2307      C2977   1.438       .  S
C2307      N2308   1.340   1_554  A
N2308      C2309   1.342       .  A
C2309      C2527   1.472       .  S
C2309      N2310   1.378       .  A
C2311      C2587   1.488       .  S
C2311      N2312   1.380       .  A
C2311      N2316   1.355       .  A
N2312      C2313   1.380       .  A
C2313      C2712   1.477       .  S
C2313      N2314   1.343       .  A
N2314      C2315   1.339       .  A
C2315      C2980   1.438       .  S
C2315      N2316   1.346       .  A
C2317      C2606   1.483       .  S
C2317      N2318   1.357       .  A
C2317      N2322   1.377       .  A
C2319      C2968   1.443       .  S
C2319      N2320   1.337       .  A
C2321      N2322   1.376       .  A
C2323      N2324   1.376       .  A
C2323      N2328   1.358       .  A
N2324      C2325   1.377       .  A
C2325      C2743   1.466       .  S
C2325      N2326   1.339       .  A
N2326      C2327   1.338       .  A
C2327      C2965   1.442       .  S
C2327      N2328   1.350       .  A
C2329      C2714   1.485       .  S
C2329      N2330   1.356       .  A
C2329      N2334   1.378       .  A
N2330      C2331   1.347       .  A
C2331      C2953   1.438       .  S
C2331      N2332   1.335       .  A
N2332      C2333   1.340       .  A
C2333      C2581   1.469       .  S
C2333      N2334   1.378       .  A
C2335      C2750   1.489   1_545  S
N2336      C2337   1.348       .  A
C2337      C2956   1.438       .  S
C2337      N2338   1.340       .  A
N2338      C2339   1.339       .  A
C2339      C2635   1.470       .  S
C2339      N2340   1.378       .  A
C2341      N2342   1.356       .  A
C2341      N2346   1.376       .  A
N2342      C2343   1.347       .  A
C2343      C2941   1.439       .  S
C2343      N2344   1.338       .  A
N2344      C2345   1.344       .  A
C2345      C2690   1.469       .  S
C2345      N2346   1.376       .  A
C2347      C2497   1.487       .  S
C2347      N2348   1.376       .  A
C2347      N2352   1.356       .  A
N2348      C2349   1.378       .  A
N2350      C2351   1.341       .  A
C2351      C2944   1.441       .  S
C2353      C2660   1.492       .  S
C2353      N2354   1.376       .  A
C2353      N2358   1.356       .  A
N2354      C2355   1.378       .  A
C2355      C2802   1.478       .  S
C2355      N2356   1.345       .  A
N2356      C2357   1.345       .  A
C2357      C2932   1.448       .  S
C2357      N2358   1.351       .  A
C2359      C2696   1.485       .  S
N2360      C2361   1.349       .  A
C2361      C2929   1.444       .  S
C2361      N2362   1.340       .  A
N2362      C2363   1.342       .  A
C2363      C2531   1.471       .  S
C2363      N2364   1.376       .  A
C2365      C2767   1.486       .  S
C2365      N2366   1.379       .  A
C2365      N2370   1.357       .  A
N2366      C2367   1.377       .  A
C2367      C2607   1.470       .  S
C2367      N2368   1.341       .  A
N2368      C2369   1.336       .  A
C2369      C2917   1.438       .  S
C2369      N2370   1.347       .  A
C2371      C2798   1.491       .  S
C2371      N2372   1.356       .  A
C2371      N2376   1.377       .  A
N2372      C2373   1.349       .  A
C2373      C2920   1.438       .  S
C2373      N2374   1.342       .  A
N2374      C2375   1.343       .  A
C2375      C2659   1.474       .  S
C2375      N2376   1.379       .  A
C2377      C2583   1.491       .  S
C2377      N2378   1.374   1_554  A
C2377      N2382   1.358       .  A
N2378      C2379   1.377       .  A
C2379      C2529   1.470       .  S
C2379      N2380   1.343       .  A
N2380      C2381   1.344   1_556  A
C2381      C2908   1.452       .  S
C2381      N2382   1.352       .  A
C2383      C2585   1.488       .  S
C2383      N2384   1.358       .  A
C2383      N2388   1.377       .  A
N2384      C2385   1.350       .  A
C2385      C2905   1.451       .  S
C2385      N2386   1.341       .  A
N2386      C2387   1.343       .  A
C2387      C2747   1.473       .  S
C2387      N2388   1.376       .  A
C2389      C2638   1.488       .  S
C2389      N2390   1.380       .  A
C2389      N2394   1.356       .  A
N2390      C2391   1.380       .  A
C2391      C2800   1.478       .  S
C2391      N2392   1.343       .  A
N2392      C2393   1.339       .  A
C2393      C2893   1.439       .  S
C2393      N2394   1.347       .  A
C2395      N2396   1.357       .  A
C2395      N2400   1.376       .  A
N2396      C2397   1.349       .  A
C2397      C2896   1.441       .  S
C2397      N2398   1.343       .  A
N2398      C2399   1.344       .  A
C2399      C2745   1.475       .  S
C2399      N2400   1.378       .  A
C2401      C2713   1.487       .  S
N2402      C2403   1.377       .  A
C2403      C2641   1.468       .  S
C2403      N2404   1.342       .  A
N2404      C2405   1.340       .  A
C2405      C2881   1.441       .  S
C2405      N2406   1.350       .  A
C2407      C2744   1.493       .  S
C2407      N2408   1.378       .  A
C2407      N2412   1.359       .  A
N2408      C2409   1.378       .  A
C2409      C2588   1.477       .  S
C2409      N2410   1.344       .  A
N2410      C2411   1.340       .  A
C2411      N2412   1.351       .  A
C2413      C2605   1.494       .  S
C2413      N2414   1.359       .  A
C2413      N2418   1.376       .  A
N2414      C2415   1.354       .  A
C2415      C2872   1.451       .  S
C2415      N2416   1.343       .  A
N2416      C2417   1.342       .  A
C2417      C2749   1.474       .  S
C2417      N2418   1.378       .  A
C2419      C2636   1.487       .  S
C2419      N2420   1.358       .  A
C2419      N2424   1.378       .  A
C2421      C2869   1.451       .  S
C2421      N2422   1.342       .  A
C2423      N2424   1.377       .  A
C2425      C2691   1.484       .  S
C2425      N2426   1.358       .  A
C2425      N2430   1.376       .  A
N2426      C2427   1.348       .  A
C2427      C2860   1.438       .  S
C2427      N2428   1.337       .  A
N2428      C2429   1.342       .  A
C2429      C2499   1.468       .  S
C2429      N2430   1.376       .  A
C2431      C2693   1.491       .  S
C2431      N2432   1.356       .  A
C2431      N2436   1.377       .  A
N2432      C2433   1.348       .  A
C2433      N2434   1.342       .  A
N2434      C2435   1.343       .  A
C2435      C2768   1.477       .  S
C2435      N2436   1.380       .  A
C2437      C2801   1.490       .  S
C2437      N2438   1.379       .  A
C2437      N2442   1.360       .  A
N2438      C2439   1.376       .  A
C2439      C2639   1.469       .  S
C2439      N2440   1.338       .  A
N2440      C2441   1.336       .  A
C2441      C2845   1.450       .  S
C2441      N2442   1.353       .  A
C2443      C2799   1.493       .  S
C2443      N2444   1.360       .  A
C2443      N2448   1.378       .  A
N2444      C2445   1.353       .  A
C2445      C2848   1.452       .  S
C2445      N2446   1.341       .  A
N2446      C2447   1.339       .  A
C2447      C2661   1.472       .  S
C2447      N2448   1.378       .  A
C2449      C2748   1.491       .  S
C2449      N2450   1.375       .  A
C2449      N2454   1.358       .  A
N2450      C2451   1.377       .  A
C2451      C2637   1.473       .  S
C2451      N2452   1.344       .  A
N2452      C2453   1.343       .  A
C2453      C2833   1.443       .  S
C2453      N2454   1.351       .  A
C2455      C2746   1.490       .  S
C2455      N2456   1.358       .  A
C2455      N2460   1.378       .  A
N2456      C2457   1.350       .  A
C2457      N2458   1.339       .  A
N2458      C2459   1.344       .  A
C2459      C2584   1.474       .  S
C2459      N2460   1.377       .  A
C2461      C2582   1.490       .  S
C2461      N2462   1.356       .  A
C2461      N2466   1.377   1_554  A
N2462      C2463   1.350       .  A
C2463      C2824   1.441       .  S
C2463      N2464   1.342   1_554  A
N2464      C2465   1.343       .  A
C2465      C2533   1.475       .  S
C2465      N2466   1.378       .  A
C2467      C2551   1.481       .  S
C2467      N2468   1.356       .  A
C2467      N2472   1.376       .  A
N2468      C2469   1.347       .  A
C2469      C2821   1.438       .  S
C2469      N2470   1.338       .  A
N2470      C2471   1.343       .  A
C2471      C2715   1.470       .  S
C2471      N2472   1.375       .  A
C2473      C2530   1.486       .  S
C2473      N2474   1.375       .  A
C2473      N2478   1.357       .  A
N2474      C2475   1.375       .  A
C2475      C2695   1.469       .  S
C2475      N2476   1.344       .  A
N2476      C2477   1.343       .  A
C2477      C2812   1.450       .  S
C2477      N2478   1.351       .  A
C2479      C2532   1.488       .  S
C2479      N2480   1.375       .  A
C2479      N2484   1.359       .  A
N2480      C2481   1.376       .  A
N2482      C2483   1.341       .  A
C2483      C2809   1.451       .  S
O2485     Zr2521   2.500       .  S
O2485      C2496   1.308       .  A
O2486     Zr2520   2.461       .  S
O2486      C2497   1.293       .  A
O2487     Zr2493   2.460       .  S
O2487      C2498   1.293       .  A
O2488     Zr2493   2.497       .  S
O2488      C2499   1.307       .  A
O2489     Zr2523   2.392       .  S
O2489      C2499   1.282       .  A
O2490     Zr2522   2.476       .  S
O2490      C2498   1.303       .  A
O2491     Zr2493   2.471       .  S
O2491      C2497   1.301       .  A
O2492     Zr2493   2.403       .  S
O2492      C2496   1.284       .  A
Zr2493     O2494   2.321       .  S
Zr2493     O2495   2.355       .  S
Zr2493     O2503   2.351       .  S
Zr2493     O2501   2.350       .  S
O2494     Zr2520   2.335       .  S
O2494     Zr2523   2.358       .  S
O2495     Zr2521   2.314       .  S
O2495     Zr2522   2.334       .  S
H2500      O2501   0.963       .  S
O2501     Zr2520   2.368       .  S
O2501     Zr2522   2.316       .  S
H2502      O2503   0.966       .  S
O2503     Zr2521   2.347       .  S
O2503     Zr2523   2.354       .  S
O2504     Zr2520   2.517       .  S
O2504      C2527   1.311       .  A
O2505     Zr2521   2.448       .  S
O2505      C2528   1.291       .  A
O2506     Zr2522   2.522       .  S
O2506      C2529   1.312       .  A
O2507     Zr2523   2.460       .  S
O2507      C2530   1.293       .  A
O2508     Zr2523   2.501       .  S
O2508      C2531   1.308       .  A
O2509     Zr2522   2.469       .  S
O2509      C2532   1.295       .  A
O2510     Zr2524   2.521       .  S
O2510      C2533   1.312       .  A
O2511     Zr2524   2.468       .  S
O2511      C2534   1.295       .  A
O2512     Zr2522   2.383       .  S
O2512      C2533   1.280       .  A
O2513     Zr2523   2.472       .  S
O2513      C2534   1.301       .  A
O2514     Zr2520   2.371       .  S
O2514      C2529   1.278       .  A
O2515     Zr2521   2.464       .  S
O2515      C2532   1.300       .  A
O2516     Zr2521   2.394       .  S
O2516      C2531   1.282       .  A
O2517     Zr2520   2.457       .  S
O2517      C2530   1.298       .  A
O2518     Zr2524   2.380       .  S
O2518      C2527   1.279       .  A
O2519     Zr2524   2.463       .  S
O2519      C2528   1.300       .  A
Zr2520     O2526   2.339       .  S
Zr2520     O2538   2.309       .  S
Zr2521     O2525   2.356       .  S
Zr2521     O2536   2.346       .  S
Zr2522     O2526   2.343       .  S
Zr2522     O2536   2.365       .  S
Zr2523     O2525   2.315       .  S
Zr2523     O2538   2.346       .  S
Zr2524     O2525   2.333       .  S
Zr2524     O2526   2.340       .  S
Zr2524     O2538   2.365       .  S
Zr2524     O2536   2.313       .  S
H2535      O2536   0.962       .  S
H2537      O2538   0.962       .  S
O2539     Zr2575   2.519       .  S
O2539      C2550   1.312       .  A
O2540     Zr2574   2.448   1_565  S
O2540      C2551   1.291       .  A
O2541     Zr2547   2.515       .  S
O2541      C2552   1.311   1_565  A
O2542      C2553   1.295   1_556  A
O2543     Zr2577   2.476       .  S
O2543      C2553   1.303       .  A
O2544     Zr2576   2.387       .  S
O2545     Zr2547   2.460   1_554  S
O2545      C2551   1.299       .  A
O2546      C2550   1.279       .  A
Zr2547     O2548   2.333   1_556  S
Zr2547     O2549   2.341       .  S
Zr2547     O2555   2.314   1_556  S
O2548     Zr2574   2.356   1_565  S
H2554      O2555   0.962   1_556  S
O2555     Zr2574   2.343   1_565  S
H2556      O2557   0.962   1_556  S
O2557     Zr2575   2.314   1_554  S
O2557     Zr2577   2.350       .  S
O2558      C2581   1.308       .  A
O2559      C2582   1.294   1_556  A
O2560     Zr2576   2.471       .  S
O2560      C2583   1.296   1_556  A
O2561     Zr2577   2.500   1_455  S
O2562     Zr2577   2.459       .  S
O2562      C2585   1.293       .  A
O2563     Zr2576   2.511       .  S
O2563      C2586   1.310       .  A
O2564     Zr2578   2.450       .  S
O2564      C2587   1.291       .  A
O2566     Zr2576   2.474   1_554  S
O2566      C2587   1.302       .  A
O2567     Zr2577   2.402       .  S
O2567      C2588   1.284       .  A
O2568      C2583   1.300       .  A
O2570     Zr2575   2.468   1_554  S
O2570      C2585   1.301       .  A
O2571     Zr2574   2.399   1_565  S
O2571      C2584   1.283       .  A
O2572     Zr2578   2.390       .  S
O2572      C2581   1.281       .  A
O2573      C2582   1.301       .  A
Zr2574     O2592   2.350   1_545  S
Zr2575     O2579   2.335   1_556  S
Zr2576     O2580   2.329   1_556  S
Zr2576     O2590   2.320   1_556  S
Zr2577     O2579   2.355       .  S
Zr2578     O2580   2.358       .  S
Zr2578     O2590   2.349       .  S
H2589      O2590   0.963   1_556  S
H2591      O2592   0.965       .  S
O2593     Zr2629   2.496       .  S
O2593      C2604   1.306       .  A
O2594     Zr2628   2.476       .  S
O2594      C2605   1.297       .  A
O2595     Zr2601   2.450       .  S
O2595      C2606   1.291       .  A
O2596     Zr2601   2.491       .  S
O2596      C2607   1.307       .  A
O2597     Zr2631   2.398       .  S
O2597      C2607   1.283       .  A
O2598     Zr2630   2.463       .  S
O2598      C2606   1.300       .  A
O2599     Zr2601   2.468       .  S
O2599      C2605   1.300       .  A
O2600     Zr2601   2.402       .  S
O2600      C2604   1.284       .  A
Zr2601     O2602   2.315       .  S
Zr2601     O2603   2.354       .  S
Zr2601     O2611   2.353       .  S
Zr2601     O2609   2.347       .  S
O2602     Zr2628   2.329       .  S
O2602     Zr2631   2.357       .  S
O2603     Zr2629   2.317       .  S
O2603     Zr2630   2.333       .  S
H2608      O2609   0.964       .  S
O2609     Zr2628   2.365       .  S
O2609     Zr2630   2.318       .  S
H2610      O2611   0.966       .  S
O2611     Zr2629   2.353       .  S
O2611     Zr2631   2.354       .  S
O2612     Zr2628   2.518       .  S
O2612      C2635   1.312       .  A
O2613     Zr2629   2.457       .  S
O2613      C2636   1.292       .  A
O2614     Zr2630   2.516       .  S
O2614      C2637   1.311       .  A
O2615     Zr2631   2.455       .  S
O2615      C2638   1.292       .  A
O2616     Zr2631   2.503       .  S
O2616      C2639   1.309       .  A
O2617     Zr2630   2.470       .  S
O2617      C2640   1.295   1_655  A
O2618     Zr2632   2.510       .  S
O2618      C2641   1.310       .  A
O2619     Zr2632   2.465       .  S
O2619      C2642   1.294       .  A
O2620     Zr2630   2.377       .  S
O2620      C2641   1.279       .  A
O2621     Zr2631   2.472       .  S
O2621      C2642   1.301       .  A
O2622     Zr2628   2.382       .  S
O2622      C2637   1.280       .  A
O2623     Zr2629   2.464       .  S
O2623      C2640   1.300   1_655  A
O2624     Zr2629   2.389       .  S
O2624      C2639   1.281       .  A
O2625     Zr2628   2.468       .  S
O2625      C2638   1.301       .  A
O2626     Zr2632   2.376       .  S
O2626      C2635   1.279       .  A
O2627     Zr2632   2.463       .  S
O2627      C2636   1.300       .  A
Zr2628     O2634   2.341       .  S
Zr2628     O2646   2.316       .  S
Zr2629     O2633   2.355       .  S
Zr2629     O2644   2.345       .  S
Zr2630     O2634   2.341       .  S
Zr2630     O2644   2.367       .  S
Zr2631     O2633   2.311       .  S
Zr2631     O2646   2.347       .  S
Zr2632     O2633   2.330       .  S
Zr2632     O2634   2.342       .  S
Zr2632     O2646   2.366       .  S
Zr2632     O2644   2.314       .  S
H2643      O2644   0.962       .  S
H2645      O2646   0.964       .  S
O2647     Zr2683   2.450       .  S
O2647      C2658   1.291       .  A
O2648     Zr2682   2.525       .  S
O2648      C2659   1.313       .  A
O2649     Zr2655   2.467       .  S
O2649      C2660   1.295       .  A
O2650     Zr2655   2.520       .  S
O2650      C2661   1.312       .  A
O2651     Zr2685   2.381       .  S
O2651      C2661   1.279       .  A
O2652     Zr2684   2.474       .  S
O2652      C2660   1.302       .  A
O2653     Zr2655   2.376       .  S
O2653      C2659   1.279       .  A
O2654     Zr2655   2.464       .  S
O2654      C2658   1.300       .  A
Zr2655     O2656   2.341       .  S
Zr2655     O2657   2.332       .  S
Zr2655     O2665   2.312       .  S
Zr2655     O2663   2.363       .  S
O2656     Zr2682   2.342       .  S
O2656     Zr2685   2.343       .  S
O2657     Zr2683   2.355       .  S
O2657     Zr2684   2.316       .  S
H2662      O2663   0.963       .  S
O2663     Zr2682   2.310       .  S
O2663     Zr2684   2.347       .  S
H2664      O2665   0.963       .  S
O2665     Zr2683   2.344       .  S
O2665     Zr2685   2.367       .  S
O2666     Zr2682   2.467       .  S
O2666      C2689   1.294       .  A
O2667     Zr2683   2.489       .  S
O2667      C2690   1.305       .  A
O2668     Zr2684   2.458       .  S
O2668      C2691   1.293       .  A
O2669     Zr2685   2.511       .  S
O2669      C2692   1.310       .  A
O2670     Zr2685   2.468       .  S
O2670      C2693   1.295       .  A
O2671     Zr2684   2.518       .  S
O2671      C2694   1.311       .  A
O2672     Zr2686   2.499       .  S
O2672      C2695   1.307       .  A
O2673     Zr2686   2.455       .  S
O2673      C2696   1.292       .  A
O2674     Zr2684   2.394       .  S
O2674      C2695   1.282       .  A
O2675     Zr2685   2.463       .  S
O2675      C2696   1.300       .  A
O2676     Zr2682   2.460       .  S
O2676      C2691   1.299       .  A
O2677     Zr2683   2.400       .  S
O2677      C2694   1.283       .  A
O2678     Zr2683   2.473       .  S
O2678      C2693   1.302       .  A
O2679     Zr2682   2.380       .  S
O2679      C2692   1.280       .  A
O2680     Zr2686   2.469       .  S
O2680      C2689   1.301       .  A
O2681     Zr2686   2.399       .  S
O2681      C2690   1.283       .  A
Zr2682     O2688   2.338       .  S
Zr2682     O2700   2.368       .  S
Zr2683     O2687   2.314       .  S
Zr2683     O2698   2.354       .  S
Zr2684     O2688   2.358       .  S
Zr2684     O2698   2.351       .  S
Zr2685     O2687   2.331       .  S
Zr2685     O2700   2.323       .  S
Zr2686     O2687   2.356       .  S
Zr2686     O2688   2.318       .  S
Zr2686     O2700   2.351       .  S
Zr2686     O2698   2.351       .  S
H2697      O2698   0.966       .  S
H2699      O2700   0.962       .  S
O2701     Zr2737   2.509       .  S
O2701      C2712   1.310       .  A
O2702     Zr2736   2.462       .  S
O2702      C2713   1.294       .  A
O2703     Zr2709   2.449       .  S
O2703      C2714   1.291       .  A
O2704     Zr2709   2.490       .  S
O2704      C2715   1.305       .  A
O2705     Zr2739   2.400       .  S
O2705      C2715   1.283       .  A
O2706     Zr2738   2.468       .  S
O2706      C2714   1.301       .  A
O2707     Zr2709   2.468       .  S
O2707      C2713   1.301       .  A
O2708     Zr2709   2.399       .  S
O2708      C2712   1.283       .  A
Zr2709     O2710   2.315       .  S
Zr2709     O2711   2.354       .  S
Zr2709     O2719   2.351       .  S
Zr2709     O2717   2.346       .  S
O2710     Zr2736   2.332       .  S
O2710     Zr2739   2.356       .  S
O2711     Zr2737   2.317       .  S
O2711     Zr2738   2.330       .  S
H2716      O2717   0.962       .  S
O2717     Zr2736   2.366       .  S
O2717     Zr2738   2.316       .  S
H2718      O2719   0.965       .  S
O2719     Zr2737   2.352       .  S
O2719     Zr2739   2.348       .  S
O2720     Zr2736   2.508       .  S
O2720      C2743   1.310       .  A
O2721     Zr2737   2.466       .  S
O2721      C2744   1.294       .  A
O2722     Zr2738   2.519       .  S
O2722      C2745   1.311       .  A
O2723     Zr2739   2.462       .  S
O2723      C2746   1.293       .  A
O2724     Zr2739   2.501       .  S
O2724      C2747   1.308       .  A
O2725     Zr2738   2.469       .  S
O2725      C2748   1.296       .  A
O2726     Zr2740   2.530       .  S
O2726      C2749   1.313       .  A
O2727     Zr2740   2.471       .  S
O2727      C2750   1.295       .  A
O2728     Zr2738   2.375       .  S
O2728      C2749   1.279       .  A
O2729     Zr2739   2.468       .  S
O2729      C2750   1.301       .  A
O2730     Zr2736   2.386       .  S
O2730      C2745   1.281       .  A
O2731     Zr2737   2.471       .  S
O2731      C2748   1.301       .  A
O2732     Zr2737   2.396       .  S
O2732      C2747   1.283       .  A
O2733     Zr2736   2.467       .  S
O2733      C2746   1.300       .  A
O2734     Zr2740   2.377       .  S
O2734      C2743   1.279       .  A
O2735     Zr2740   2.471       .  S
O2735      C2744   1.301       .  A
Zr2736     O2742   2.343       .  S
Zr2736     O2754   2.314       .  S
Zr2737     O2741   2.356       .  S
Zr2737     O2752   2.351       .  S
Zr2738     O2742   2.342       .  S
Zr2738     O2752   2.370       .  S
Zr2739     O2741   2.323       .  S
Zr2739     O2754   2.344       .  S
Zr2740     O2741   2.338       .  S
Zr2740     O2742   2.343       .  S
Zr2740     O2754   2.369       .  S
Zr2740     O2752   2.312       .  S
H2751      O2752   0.962       .  S
H2753      O2754   0.963       .  S
O2756     Zr2790   2.451       .  S
O2756      C2767   1.291       .  A
O2757     Zr2763   2.522       .  S
O2758     Zr2763   2.467       .  S
O2758      C2769   1.295       .  A
O2759     Zr2793   2.467       .  S
O2759      C2769   1.300       .  A
O2760     Zr2792   2.385       .  S
O2760      C2768   1.280       .  A
O2761     Zr2763   2.472       .  S
O2761      C2767   1.302       .  A
O2762     Zr2763   2.386       .  S
O2762      C2766   1.281       .  A
Zr2763     O2764   2.334       .  S
Zr2763     O2773   2.366       .  S
O2764     Zr2790   2.356       .  S
O2764     Zr2793   2.315       .  S
O2765     Zr2792   2.342       .  S
H2770      O2771   0.963       .  S
O2771     Zr2792   2.364       .  S
H2772      O2773   0.963       .  S
O2773     Zr2793   2.352       .  S
O2774      C2797   1.307       .  A
O2775     Zr2791   2.466       .  S
O2775      C2798   1.295       .  A
O2776     Zr2792   2.471       .  S
O2776      C2799   1.295       .  A
O2777     Zr2793   2.506       .  S
O2777      C2800   1.309       .  A
O2778      C2801   1.292       .  A
O2779      C2802   1.311       .  A
O2780     Zr2794   2.457       .  S
O2780      C2803   1.293       .  A
O2781     Zr2794   2.503       .  S
O2781      C2804   1.308   1_565  A
O2782      C2803   1.299       .  A
O2784      C2799   1.302       .  A
O2785     Zr2791   2.395       .  S
O2785      C2802   1.282       .  A
O2786      C2801   1.302       .  A
O2787     Zr2790   2.405       .  S
O2787      C2800   1.284       .  A
O2788     Zr2794   2.401       .  S
O2789     Zr2794   2.475       .  S
O2789      C2798   1.302       .  A
Zr2791     O2795   2.339   1_565  S
Zr2791     O2806   2.366       .  S
Zr2792     O2796   2.334       .  S
Zr2794     O2795   2.317   1_565  S
Zr2794     O2806   2.350       .  S
H2805      O2806   0.961       .  S
C2809      C2810   1.400       .  A
C2809      C2814   1.410       .  A
C2810      C2811   1.392       .  A
C2810      H2819   1.084       .  S
C2811      C2812   1.410       .  A
C2811      S2815   1.805       .  S
C2812      C2813   1.399       .  A
C2813      C2814   1.388       .  A
C2813      H2820   1.085       .  S
C2814      S2816   1.805       .  S
S2815      H2818   1.406       .  S
S2816      H2817   1.406       .  S
C2821      C2822   1.395       .  A
C2821      C2826   1.408       .  A
C2822      C2823   1.387       .  A
C2822      H2831   1.085       .  S
C2823      S2827   1.805   1_554  S
C2825      C2826   1.390       .  A
C2826      S2828   1.804       .  S
S2828      H2829   1.406       .  S
C2833      C2834   1.397       .  A
C2833      C2838   1.410       .  A
C2834      C2835   1.392       .  A
C2834      H2843   1.084       .  S
C2835      C2836   1.412       .  A
C2836      C2837   1.396       .  A
C2837      C2838   1.388       .  A
C2837      H2844   1.084       .  S
C2838      S2840   1.806       .  S
S2839      H2842   1.403       .  S
S2840      H2841   1.406       .  S
C2846      C2847   1.389       .  A
C2847      C2848   1.404       .  A
C2847      S2851   1.804       .  S
C2848      C2849   1.407       .  A
C2849      C2850   1.386   1_565  A
C2849      H2856   1.084       .  S
S2851      H2854   1.406       .  S
S2852      H2853   1.408       .  S
C2857      C2858   1.396       .  A
C2857      C2862   1.409       .  A
C2858      C2859   1.390       .  A
C2858      H2867   1.085       .  S
C2859      C2860   1.412       .  A
C2859      S2863   1.809       .  S
C2860      C2861   1.396       .  A
C2861      C2862   1.387       .  A
C2861      H2868   1.085       .  S
C2862      S2864   1.806       .  S
S2863      H2866   1.401       .  S
C2869      C2870   1.400       .  A
C2869      C2874   1.409       .  A
C2870      C2871   1.393       .  A
C2870      H2879   1.084       .  S
C2871      C2872   1.411       .  A
C2871      S2875   1.805       .  S
C2872      C2873   1.399       .  A
C2873      C2874   1.390       .  A
C2873      H2880   1.085       .  S
C2874      S2876   1.806       .  S
S2875      H2878   1.407       .  S
S2876      H2877   1.407       .  S
C2881      C2882   1.396       .  A
C2881      C2886   1.410       .  A
C2882      C2883   1.390       .  A
C2882      H2891   1.085       .  S
C2883      C2884   1.411       .  A
C2883      S2887   1.804       .  S
C2884      C2885   1.398       .  A
C2885      C2886   1.390       .  A
C2885      H2892   1.084       .  S
S2888      H2889   1.406       .  S
C2893      C2894   1.396       .  A
C2893      C2898   1.410       .  A
C2894      C2895   1.388       .  A
C2894      H2903   1.085       .  S
C2895      C2896   1.409       .  A
C2895      S2899   1.805       .  S
C2896      C2897   1.397       .  A
C2897      C2898   1.391       .  A
C2897      H2904   1.084       .  S
C2898      S2900   1.807       .  S
S2899      H2902   1.404       .  S
S2900      H2901   1.403       .  S
C2905      C2906   1.400   1_565  A
C2905      C2910   1.410       .  A
C2906      H2915   1.084       .  S
C2907      C2908   1.409       .  A
C2907      S2911   1.804       .  S
C2909      C2910   1.388       .  A
C2910      S2912   1.805       .  S
S2911      H2914   1.406       .  S
S2912      H2913   1.407       .  S
C2917      C2918   1.396       .  A
C2917      C2922   1.409       .  A
C2918      C2919   1.384       .  A
C2918      H2927   1.085       .  S
C2919      C2920   1.408       .  A
C2919      S2923   1.806       .  S
C2920      C2921   1.398       .  A
C2921      C2922   1.391       .  A
C2921      H2928   1.085       .  S
C2922      S2924   1.806       .  S
S2923      H2926   1.405       .  S
S2924      H2925   1.404       .  S
C2929      C2930   1.400       .  A
C2929      C2934   1.408       .  A
C2930      C2931   1.390       .  A
C2931      C2932   1.408       .  A
C2932      C2933   1.400       .  A
C2933      C2934   1.389       .  A
C2933      H2940   1.085       .  S
C2934      S2936   1.806       .  S
S2936      H2937   1.407       .  S
C2941      C2942   1.394       .  A
C2941      C2946   1.406       .  A
C2942      C2943   1.387       .  A
C2942      H2951   1.085       .  S
C2943      C2944   1.410       .  A
C2943      S2947   1.805       .  S
C2944      C2945   1.399       .  A
C2945      C2946   1.394       .  A
C2945      H2952   1.083       .  S
C2946      S2948   1.808       .  S
S2947      H2950   1.402       .  S
S2948      H2949   1.407       .  S
C2953      C2954   1.393       .  A
C2953      C2958   1.413       .  A
C2954      C2955   1.383       .  A
C2954      H2963   1.085       .  S
C2955      C2956   1.410       .  A
C2955      S2959   1.806       .  S
C2956      C2957   1.394       .  A
C2957      C2958   1.387       .  A
C2957      H2964   1.084       .  S
C2958      S2960   1.803       .  S
S2959      H2962   1.407       .  S
S2960      H2961   1.406       .  S
C2965      C2966   1.394       .  A
C2965      C2970   1.411       .  A
C2966      C2967   1.387       .  A
C2966      H2975   1.084       .  S
C2967      C2968   1.414       .  A
C2967      S2971   1.806       .  S
C2968      C2969   1.394       .  A
C2969      C2970   1.385       .  A
C2969      H2976   1.085       .  S
C2970      S2972   1.805       .  S
S2971      H2974   1.406       .  S
S2972      H2973   1.407       .  S
C2977      C2978   1.397       .  A
C2977      C2982   1.410       .  A
C2978      C2979   1.389       .  A
C2978      H2987   1.085       .  S
C2979      C2980   1.409       .  A
C2979      S2983   1.804       .  S
C2980      C2981   1.395       .  A
C2981      C2982   1.387       .  A
C2981      H2988   1.085       .  S
C2982      S2984   1.807   1_554  S
S2983      H2986   1.404       .  S
S2984      H2985   1.404       .  S
C2989      C2994   1.408       .  A
C2990      C2991   1.393       .  A
C2990      H2999   1.085       .  S
C2991      C2992   1.410       .  A
C2991      S2995   1.805       .  S
C2992      C2993   1.399       .  A
C2993      H3000   1.085       .  S
C2994      S2996   1.805       .  S
S2995      H2998   1.407       .  S
S2996      H2997   1.407       .  S
C3001      C3002   1.398       .  A
C3001      C3006   1.409       .  A
C3002      C3003   1.391       .  A
C3002      H3011   1.085       .  S
C3003      C3004   1.412       .  A
C3003      S3007   1.803       .  S
C3004      C3005   1.399       .  A
C3005      C3006   1.388       .  A
C3005      H3012   1.084       .  S
C3006      S3008   1.804       .  S
S3007      H3010   1.406       .  S
S3008      H3009   1.407       .  S
C3013      C3014   1.398       .  A
C3013      C3018   1.408       .  A
C3014      C3015   1.393       .  A
C3014      H3023   1.084       .  S
C3015      C3016   1.412       .  A
C3015      S3019   1.808       .  S
C3016      C3017   1.395       .  A
C3017      C3018   1.385       .  A
C3017      H3024   1.085       .  S
C3018      S3020   1.803       .  S
S3019      H3022   1.401       .  S
S3020      H3021   1.404   1_655  S
