geometry optimzed in LAMMPS
_audit_creation_date              2020-11-30 
_audit_creation_method            'lammps2cif' 
_symmetry_space_group_name_H-M    'P1' 
_symmetry_Int_Tables_number       1 
_symmetry_cell_setting            triclinic 
loop_ 
_symmetry_equiv_pos_as_xyz 
  x,y,z 
_cell_length_a                    34.07324789 
_cell_length_b                    34.6254458092613 
_cell_length_c                    62.81341248759011 
_cell_angle_alpha                 89.63449150385672 
_cell_angle_beta                  90.18052526843078 
_cell_angle_gamma                 89.98226229868206 
loop_ 
_atom_site_label 
_atom_site_type_symbol 
_atom_site_fract_x 
_atom_site_fract_y 
_atom_site_fract_z 
_atom_site_charge 
N1          N  0.36889806  0.25131198  0.40905149    -0.35200
N2          N  0.37623601  0.19248913  0.37623155    -0.55700
N3          N  0.37948725  0.25259906  0.34332426    -0.35200
N4          N  0.37558976  0.31140859  0.37666378    -0.55700
C5          C  0.37212739  0.21953423  0.42153923     0.28400
C6          C  0.37214514  0.28247142  0.42180129     0.28400
C7          C  0.39034180  0.22115692  0.33191082     0.28400
C8          C  0.39014745  0.28458540  0.33211989     0.28400
C9          C  0.36843069  0.16931543  0.39311117     0.37000
C10         C  0.37502640  0.16979765  0.35879931     0.37000
C11         C  0.36870659  0.33402613  0.39374812     0.37000
C12         C  0.37502981  0.33491259  0.35939150     0.37000
C13         C  0.37698536  0.23060591  0.44257748    -0.20400
C14         C  0.37698322  0.27032693  0.44274290    -0.20400
C15         C  0.40712089  0.23338285  0.31293909    -0.20400
C16         C  0.40698898  0.27325608  0.31306556    -0.20400
C17         C  0.36254645  0.13168455  0.38634616    -0.21500
C18         C  0.36678497  0.13198537  0.36466509    -0.21500
C19         C  0.36394128  0.37211091  0.38726657    -0.21500
C20         C  0.36800818  0.37268421  0.36556966    -0.21500
C21         C  0.36849390  0.18094151  0.41466090    -0.16800
C22         C  0.36890684  0.32145814  0.41523999    -0.16800
C23         C  0.38465448  0.32366616  0.33844502    -0.16800
C24         C  0.38489340  0.18180140  0.33795680    -0.16800
H25         H  0.37984711  0.21200994  0.45641434     0.16100
H26         H  0.37987183  0.28821050  0.45673243     0.16100
H27         H  0.41862894  0.21544345  0.30036434     0.16100
H28         H  0.41840981  0.29179078  0.30060575     0.16100
H29         H  0.35641496  0.10644643  0.39602931     0.14300
H30         H  0.36465066  0.10703965  0.35442966     0.14300
H31         H  0.35886079  0.39708669  0.39715872     0.14300
H32         H  0.36678013  0.39820350  0.35554759     0.14300
H33         H  0.36072509  0.25164700  0.39317587     0.27600
H34         H  0.36284007  0.25227201  0.35713079     0.27600
N35         N  0.13128075  0.31203474  0.37807653    -0.35200
N36         N  0.12748800  0.25318525  0.34493449    -0.55700
N37         N  0.13215014  0.19411110  0.37794152    -0.35200
N38         N  0.13776845  0.25276720  0.41064828    -0.56500
C39         C  0.13683998  0.33380564  0.36036280     0.28400
C40         C  0.14260847  0.33351054  0.39497665     0.28400
C41         C  0.13674786  0.17256059  0.36020074     0.28400
C42         C  0.14503774  0.17262678  0.39465848     0.28400
C43         C  0.11835600  0.28486763  0.33316569     0.37000
C44         C  0.11752676  0.22194019  0.33320455     0.37000
C45         C  0.13455490  0.28377819  0.42345091     0.37000
C46         C  0.13629942  0.22121472  0.42336635     0.37000
C47         C  0.15167330  0.36959415  0.36605654    -0.20400
C48         C  0.15540418  0.36938559  0.38786971    -0.20400
C49         C  0.15255632  0.13697357  0.36568271    -0.20400
C50         C  0.15799789  0.13707291  0.38737944    -0.20400
C51         C  0.10312061  0.27368561  0.31364922    -0.21500
C52         C  0.10253010  0.23383674  0.31369256    -0.21500
C53         C  0.13077239  0.27188697  0.44446952    -0.21500
C54         C  0.13195462  0.23218811  0.44441799    -0.21500
C55         C  0.12547024  0.32352499  0.33949569    -0.16800
C56         C  0.13985163  0.32233127  0.41666361    -0.16800
C57         C  0.14298366  0.18312618  0.41639188    -0.16800
C58         C  0.12412962  0.18302799  0.33950610    -0.16800
H59         H  0.15861764  0.39357852  0.35559098     0.16100
H60         H  0.16590387  0.39318585  0.39741130     0.16100
H61         H  0.15914796  0.11322972  0.35515318     0.16100
H62         H  0.16955681  0.11330546  0.39675339     0.16100
H63         H  0.09364097  0.29227089  0.30069918     0.14300
H64         H  0.09259694  0.21571912  0.30077319     0.14300
H65         H  0.12880023  0.28993413  0.45843407     0.14300
H66         H  0.13096918  0.21359888  0.45832471     0.14300
H67         H  0.11620159  0.28606639  0.37874406     0.27600
H68         H  0.11662560  0.21980317  0.37882757     0.27600
N69         N  0.33159096  0.45576778  0.47503347    -0.04700
N70         N  0.35582058  0.42654262  0.47163208    -0.56800
N71         N  0.30294057  0.04423280  0.45981507    -0.04400
N72         N  0.30666055  0.07297790  0.44614604    -0.58900
N73         N  0.33123234  0.04506788  0.47411144    -0.03900
N74         N  0.35492701  0.07460007  0.47045531    -0.56800
N75         N  0.30311898  0.45576242  0.46083177    -0.03600
N76         N  0.30717157  0.42678263  0.44755089    -0.59300
C77         C  0.33985603  0.40879734  0.45450732     0.97500
C78         C  0.33897823  0.09157770  0.45301394     0.97300
N79         N  0.18406616  0.04584445  0.47500210    -0.04900
N80         N  0.16058906  0.07577871  0.47165362    -0.57400
N81         N  0.21168579  0.45565990  0.46149774    -0.03000
N82         N  0.20716942  0.42628646  0.44849705    -0.58600
N83         N  0.18397069  0.45584892  0.47603684    -0.04900
N84         N  0.15976146  0.42639642  0.47311112    -0.57600
N85         N  0.21141447  0.04460670  0.46027941    -0.02600
N86         N  0.20722370  0.07340348  0.44663390    -0.58700
Mn87       Mn  0.25710350  0.00003278  0.46013302     1.18400
C88         C  0.17561250  0.09255676  0.45392513     0.99600
C89         C  0.17497219  0.40823122  0.45595012     1.00300
N90         N  0.33352645  0.04678879  0.52434044    -0.04900
N91         N  0.35847675  0.07556351  0.52729442    -0.61200
N92         N  0.30609098  0.45853878  0.54010803    -0.03700
N93         N  0.31180381  0.43064335  0.55415503    -0.61900
N94         N  0.33334751  0.45776232  0.52531732    -0.04400
N95         N  0.35827008  0.42920755  0.52898467    -0.61500
N96         N  0.30617832  0.04715555  0.53908689    -0.03300
N97         N  0.31180735  0.07601646  0.55234115    -0.62200
Mn98       Mn  0.33385473  0.00130836  0.49971779     1.10700
C99         C  0.34427490  0.09349439  0.54473806     1.00800
C100        C  0.34423831  0.41267983  0.54696302     1.00900
N101        N  0.18573183  0.45786010  0.52635072    -0.04400
N102        N  0.16194459  0.42842090  0.53015157    -0.59800
N103        N  0.21431939  0.04764508  0.53956856    -0.03700
N104        N  0.21060808  0.07709459  0.55259122    -0.56500
N105        N  0.18583471  0.04760228  0.52535453    -0.05000
N106        N  0.16197407  0.07720275  0.52851712    -0.59400
N107        N  0.21411965  0.45869381  0.54060743    -0.04000
N108        N  0.21037160  0.43005873  0.55435271    -0.56500
Mn109      Mn  0.18308218  0.00191949  0.50080427     1.20200
Mn110      Mn  0.26004569  0.00308026  0.54052611     1.10100
Cl111      Cl  0.25851201  0.00157868  0.50031498    -0.84500
C112        C  0.17794849  0.41149556  0.54761667     0.97800
C113        C  0.17814357  0.09531428  0.54546301     0.97600
N114        N  0.38674321  0.19171763  0.61987922    -0.35200
N115        N  0.38453814  0.25205347  0.58754438    -0.55700
N116        N  0.38497612  0.30898529  0.62156065    -0.35200
N117        N  0.38939386  0.24847701  0.65351551    -0.55700
C118        C  0.39248115  0.17089340  0.60200042     0.28400
C119        C  0.39669755  0.16896550  0.63665126     0.28400
C120        C  0.39068974  0.33170702  0.60425292     0.28400
C121        C  0.39512549  0.32984965  0.63887630     0.28400
C122        C  0.37592150  0.22142819  0.57515933     0.37000
C123        C  0.37520434  0.28388314  0.57607480     0.37000
C124        C  0.38601535  0.21645762  0.66573261     0.37000
C125        C  0.38553433  0.27898620  0.66660573     0.37000
C126        C  0.40626428  0.13445808  0.60742940    -0.20400
C127        C  0.40909346  0.13327410  0.62927117    -0.20400
C128        C  0.40438488  0.36754981  0.61059404    -0.20400
C129        C  0.40739668  0.36633425  0.63242631    -0.20400
C130        C  0.36208331  0.23384746  0.55549480    -0.21500
C131        C  0.36162630  0.27351398  0.55607326    -0.21500
C132        C  0.37995142  0.22663916  0.68678604    -0.21500
C133        C  0.37967569  0.26634132  0.68734167    -0.21500
C134        C  0.38170507  0.18253923  0.58119923    -0.16800
C135        C  0.39228654  0.17852984  0.65841012    -0.16800
C136        C  0.39129370  0.31773808  0.66034627    -0.16800
C137        C  0.38041705  0.32208603  0.58315901    -0.16800
H138        H  0.41284410  0.11090150  0.59676950     0.16100
H139        H  0.41833635  0.10854966  0.63864836     0.16100
H140        H  0.41103870  0.39218323  0.60054050     0.16100
H141        H  0.41687444  0.38994329  0.64241151     0.16100
H142        H  0.35328410  0.21620128  0.54214402     0.14300
H143        H  0.35241823  0.29251320  0.54324763     0.14300
H144        H  0.37711864  0.20749787  0.70038490     0.14300
H145        H  0.37658614  0.28386466  0.70144716     0.14300
H146        H  0.37183891  0.21780403  0.62066293     0.27600
H147        H  0.37024047  0.28275899  0.62165323     0.27600
N148        N  0.13528192  0.30949626  0.62383959    -0.35200
N149        N  0.14265166  0.25178948  0.59076994    -0.55700
N150        N  0.13154312  0.19160374  0.62259995    -0.35200
N151        N  0.12770685  0.24930602  0.65613297    -0.55700
C152        C  0.14780482  0.33180200  0.60746225     0.28400
C153        C  0.13933985  0.33038432  0.64183475     0.28400
C154        C  0.14271993  0.16992145  0.60580667     0.28400
C155        C  0.13304618  0.16872623  0.64013205     0.28400
C156        C  0.14176703  0.28365892  0.57827147     0.37000
C157        C  0.14089894  0.22111611  0.57762653     0.37000
C158        C  0.11889696  0.28032461  0.66813477     0.37000
C159        C  0.11665313  0.21794287  0.66750363     0.37000
C160        C  0.15985843  0.36739374  0.61517847    -0.20400
C161        C  0.15439868  0.36651930  0.63686112    -0.20400
C162        C  0.15095874  0.13264423  0.61277968    -0.20400
C163        C  0.14471644  0.13187148  0.63439156    -0.20400
C164        C  0.13964527  0.27320543  0.55702645    -0.21500
C165        C  0.13921672  0.23354381  0.55661668    -0.21500
C166        C  0.10302434  0.26861907  0.68742332    -0.21500
C167        C  0.10164077  0.22902446  0.68703182    -0.21500
C168        C  0.14650349  0.32176358  0.58566966    -0.16800
C169        C  0.12652569  0.31892423  0.66226254    -0.16800
C170        C  0.12151788  0.17943288  0.66087270    -0.16800
C171        C  0.14386887  0.18219468  0.58425016    -0.16800
H172        H  0.17093480  0.39171754  0.60611225     0.16100
H173        H  0.16034290  0.38999437  0.64770412     0.16100
H174        H  0.16007397  0.10830085  0.60326861     0.16100
H175        H  0.14810264  0.10689234  0.64468402     0.16100
H176        H  0.13938365  0.29214251  0.54324957     0.14300
H177        H  0.13840573  0.21588128  0.54246726     0.14300
H178        H  0.09355848  0.28668560  0.70043762     0.14300
H179        H  0.09085886  0.21052971  0.69967823     0.14300
H180        H  0.12011426  0.28364392  0.62251824     0.27600
H181        H  0.11930406  0.21898138  0.62184422     0.27600
N182        N  0.46164449  0.42808556  0.27446978    -0.04700
N183        N  0.45584184  0.39885523  0.28757528    -0.56800
N184        N  0.43061293  0.45907658  0.22833971    -0.04400
N185        N  0.40140856  0.45374562  0.21488989    -0.58900
N186        N  0.45808300  0.43273209  0.22583330    -0.03900
N187        N  0.44717310  0.40811679  0.21078347    -0.56800
N188        N  0.43461474  0.45489905  0.27694211    -0.03600
N189        N  0.40900094  0.44345208  0.29158997    -0.59300
C190        C  0.42331865  0.40870446  0.29826933     0.97500
C191        C  0.41200734  0.42222837  0.20393303     0.97300
N192        N  0.45871191  0.07311012  0.22525272    -0.04900
N193        N  0.44810641  0.09716086  0.20972959    -0.57400
N194        N  0.43461383  0.05164855  0.27643320    -0.03000
N195        N  0.40900313  0.06311756  0.29100866    -0.58600
N196        N  0.46161400  0.07848936  0.27374529    -0.04900
N197        N  0.45575931  0.10774483  0.28663594    -0.57600
N198        N  0.43135634  0.04667344  0.22796808    -0.02600
N199        N  0.40262345  0.05123137  0.21418682    -0.58700
Mn200      Mn  0.43210210  0.50320671  0.25314243     1.18400
C201        C  0.41333717  0.08242452  0.20287129     0.99600
C202        C  0.42324152  0.09791080  0.29740800     1.00300
N203        N  0.05573021  0.43303277  0.22644876    -0.04900
N204        N  0.06622589  0.40867357  0.21126147    -0.61200
N205        N  0.07829516  0.45506641  0.27772129    -0.03700
N206        N  0.10367152  0.44357285  0.29255036    -0.61900
N207        N  0.05137514  0.42821032  0.27492814    -0.04400
N208        N  0.05707871  0.39887369  0.28799516    -0.61500
N209        N  0.08352303  0.45900612  0.22926759    -0.03300
N210        N  0.11267667  0.45353443  0.21589873    -0.62200
Mn211      Mn  0.00668690  0.42981652  0.24983504     1.10700
C212        C  0.10155289  0.42241714  0.20469506     1.00800
C213        C  0.08938151  0.40875269  0.29898257     1.00900
N214        N  0.05144321  0.07863786  0.27438506    -0.04400
N215        N  0.05650460  0.10779578  0.28745697    -0.59800
N216        N  0.08392811  0.04729283  0.22884604    -0.03700
N217        N  0.11306441  0.05208663  0.21536284    -0.56500
N218        N  0.05641479  0.07350383  0.22577721    -0.05000
N219        N  0.06714157  0.09743504  0.21023501    -0.59400
N220        N  0.07848818  0.05191075  0.27740343    -0.04000
N221        N  0.10337788  0.06340550  0.29243235    -0.56500
Mn222      Mn  0.00707910  0.07671481  0.24918384     1.20200
Mn223      Mn  0.08192736  0.50335520  0.25407291     1.10100
Cl224      Cl  0.00695592  0.50329534  0.25165509    -0.84500
C225        C  0.08862055  0.09807400  0.29871816     0.97800
C226        C  0.10232547  0.08312382  0.20378904     0.97600
N227        N  0.46128431  0.17665110  0.97252655    -0.04700
N228        N  0.43218445  0.15247826  0.96847605    -0.56800
N229        N  0.05163097  0.20514293  0.95890946    -0.04400
N230        N  0.08044866  0.20070000  0.94517644    -0.58900
N231        N  0.05173631  0.17695492  0.97305728    -0.03900
N232        N  0.08073387  0.15257418  0.96917063    -0.56800
N233        N  0.46168976  0.20485463  0.95838223    -0.03600
N234        N  0.43305892  0.20060119  0.94444883    -0.59300
C235        C  0.41489371  0.16810220  0.95101594     0.97500
C236        C  0.09844783  0.16808927  0.95185367     0.97300
N237        N  0.05124628  0.32236182  0.97487922    -0.04900
N238        N  0.08061302  0.34673965  0.97160261    -0.57400
N239        N  0.46133709  0.29529996  0.95957926    -0.03000
N240        N  0.43295603  0.30104651  0.94563835    -0.58600
N241        N  0.46072002  0.32204740  0.97436812    -0.04900
N242        N  0.43178569  0.34669436  0.97076832    -0.57600
N243        N  0.05110330  0.29551397  0.96012743    -0.02600
N244        N  0.08009705  0.30086883  0.94661411    -0.58700
Mn245      Mn  0.00639152  0.25027000  0.95870516     1.18400
C246        C  0.09831612  0.33259365  0.95399600     0.99600
C247        C  0.41476844  0.33287321  0.95290767     1.00300
N248        N  0.05093914  0.17528039  0.02344787    -0.04900
N249        N  0.08128164  0.15208358  0.02671082    -0.61200
N250        N  0.46008976  0.20075919  0.03762096    -0.03700
N251        N  0.43165275  0.19442355  0.05134963    -0.61900
N252        N  0.46043860  0.17390311  0.02288716    -0.04400
N253        N  0.43203167  0.14857587  0.02633876    -0.61500
N254        N  0.04978050  0.20210664  0.03818671    -0.03300
N255        N  0.07910887  0.19794480  0.05169214    -0.62200
Mn256      Mn  0.00605002  0.17418066  0.99796951     1.10700
C257        C  0.09848356  0.16693453  0.04431183     1.00800
C258        C  0.41434848  0.16212855  0.04405127     1.00900
N259        N  0.45900572  0.31978205  0.02472183    -0.04400
N260        N  0.42999146  0.34414454  0.02869020    -0.59800
N261        N  0.04886889  0.29210381  0.03962700    -0.03700
N262        N  0.07735519  0.29637763  0.05365708    -0.56500
N263        N  0.04963726  0.32013455  0.02539875    -0.05000
N264        N  0.07877962  0.34423339  0.02948742    -0.59400
N265        N  0.45892783  0.29137179  0.03874769    -0.04000
N266        N  0.43006899  0.29564917  0.05245806    -0.56500
Mn267      Mn  0.00518580  0.32262485  0.99983876     1.20200
Mn268      Mn  0.00422810  0.24653557  0.03905577     1.10100
Cl269      Cl  0.00539474  0.24841038  0.99888642    -0.84500
C270        C  0.41215149  0.32836408  0.04592097     0.97800
C271        C  0.09576579  0.32875252  0.04707124     0.97600
N272        N  0.19580630  0.38225474  0.87684964    -0.35200
N273        N  0.25513468  0.39044957  0.84365498    -0.55700
N274        N  0.31656420  0.38514384  0.87601086    -0.35200
N275        N  0.25707147  0.37306268  0.90879194    -0.55700
C276        C  0.17273949  0.38079643  0.85927845     0.28400
C277        C  0.17392960  0.37025912  0.89360596     0.28400
C278        C  0.33842587  0.38270571  0.85811418     0.28400
C279        C  0.33946982  0.37347165  0.89246480     0.28400
C280        C  0.22282686  0.39905064  0.83197199     0.37000
C281        C  0.28655195  0.39946554  0.83146956     0.37000
C282        C  0.22570294  0.37192856  0.92189560     0.37000
C283        C  0.28921762  0.37385344  0.92140572     0.37000
C284        C  0.13553079  0.36830930  0.86498784    -0.20400
C285        C  0.13630100  0.36156065  0.88658369    -0.20400
C286        C  0.37594913  0.37018548  0.86332181    -0.20400
C287        C  0.37661226  0.36433401  0.88496643    -0.20400
C288        C  0.23382882  0.41311724  0.81214252    -0.21500
C289        C  0.27415856  0.41333491  0.81181918    -0.21500
C290        C  0.23800996  0.37168370  0.94295661    -0.21500
C291        C  0.27824321  0.37295011  0.94265026    -0.21500
C292        C  0.18361464  0.39241758  0.83845801    -0.16800
C293        C  0.18628849  0.36845922  0.91517004    -0.16800
C294        C  0.32826121  0.37169605  0.91411845    -0.16800
C295        C  0.32617424  0.39332651  0.83737937    -0.16800
H296        H  0.11030618  0.36462484  0.85468405     0.16100
H297        H  0.11173754  0.35167974  0.89604463     0.16100
H298        H  0.40037312  0.36569666  0.85263809     0.16100
H299        H  0.40167066  0.35439944  0.89411267     0.16100
H300        H  0.21479795  0.42198576  0.79917606     0.14300
H301        H  0.29227031  0.42241422  0.79857635     0.14300
H302        H  0.21992566  0.37010907  0.95707050     0.14300
H303        H  0.29725961  0.37242177  0.95648748     0.14300
H304        H  0.22342575  0.39463010  0.87765668     0.27600
H305        H  0.28904413  0.39770196  0.87721103     0.27600
N306        N  0.25592410  0.13090455  0.90617385    -0.35200
N307        N  0.19564060  0.11618507  0.87468950    -0.55700
N308        N  0.25610283  0.11081774  0.84164882    -0.35200
N309        N  0.31651477  0.12106575  0.87375026    -0.55700
C310        C  0.22429484  0.12745744  0.91902154     0.28400
C311        C  0.28823485  0.12844313  0.91865426     0.28400
C312        C  0.22428788  0.09849015  0.83067936     0.28400
C313        C  0.28831469  0.10132506  0.83020605     0.28400
C314        C  0.17215206  0.12567416  0.89118465     0.37000
C315        C  0.17217465  0.11379505  0.85736356     0.37000
C316        C  0.33943382  0.13187605  0.89026268     0.37000
C317        C  0.33958356  0.12155097  0.85626645     0.37000
C318        C  0.23660864  0.12311791  0.93995419    -0.20400
C319        C  0.27698657  0.12361026  0.93972148    -0.20400
C320        C  0.23638612  0.08159245  0.81182508    -0.20400
C321        C  0.27673701  0.08335512  0.81153403    -0.20400
C322        C  0.13349992  0.12840089  0.88439263    -0.21500
C323        C  0.13348876  0.12074275  0.86301121    -0.21500
C324        C  0.37736912  0.13888181  0.88324731    -0.21500
C325        C  0.37746780  0.13226478  0.86173613    -0.21500
C326        C  0.18470998  0.13017920  0.91248153    -0.16800
C327        C  0.32738313  0.13319633  0.91176422    -0.16800
C328        C  0.32772947  0.10961080  0.83577804    -0.16800
C329        C  0.18461573  0.10360672  0.83671117    -0.16800
H330        H  0.21838112  0.12002752  0.95394432     0.16100
H331        H  0.29591341  0.12114446  0.95353546     0.16100
H332        H  0.21804376  0.06924774  0.79952415     0.16100
H333        H  0.29539531  0.07263629  0.79896777     0.16100
H334        H  0.10787688  0.13481338  0.89387798     0.14300
H335        H  0.10783515  0.12021252  0.85281180     0.14300
H336        H  0.40254965  0.14730413  0.89267999     0.14300
H337        H  0.40267992  0.13458071  0.85136577     0.14300
H338        H  0.25545318  0.13928100  0.89029988     0.27600
H339        H  0.25554738  0.12817762  0.85502917     0.27600
N340        N  0.07825892  0.45299278  0.71956873    -0.04700
N341        N  0.10287518  0.42397217  0.71673805    -0.56800
N342        N  0.05032527  0.04160382  0.70387230    -0.04400
N343        N  0.05427204  0.07066135  0.69041071    -0.58900
N344        N  0.07793157  0.04244572  0.71853565    -0.03900
N345        N  0.10147466  0.07227371  0.71531555    -0.56800
N346        N  0.05062002  0.45269464  0.70492713    -0.03600
N347        N  0.05562470  0.42351191  0.69185051    -0.59300
C348        C  0.08805446  0.40585882  0.69949519     0.97500
C349        C  0.08607722  0.08948134  0.69778186     0.97300
N350        N  0.43152506  0.04226079  0.71785474    -0.04900
N351        N  0.40722768  0.07137177  0.71406807    -0.57400
N352        N  0.45934360  0.45254552  0.70462387    -0.03000
N353        N  0.45512578  0.42311964  0.69163854    -0.58600
N354        N  0.43152095  0.45262491  0.71907829    -0.04900
N355        N  0.40756057  0.42301394  0.71619392    -0.57600
N356        N  0.45916429  0.04128724  0.70330708    -0.02600
N357        N  0.45446327  0.06950143  0.68935504    -0.58700
Mn358      Mn  0.00476813  0.49693565  0.70362497     1.18400
C359        C  0.42214883  0.08795751  0.69626967     0.99600
C360        C  0.42299013  0.40494336  0.69909474     1.00300
N361        N  0.07941643  0.04214742  0.76883485    -0.04900
N362        N  0.10921149  0.06444572  0.77411506    -0.61200
N363        N  0.05205502  0.45490303  0.78472540    -0.03700
N364        N  0.06283943  0.43235436  0.80077346    -0.61900
N365        N  0.07925123  0.45479042  0.76986012    -0.04400
N366        N  0.10866731  0.43210296  0.77555279    -0.61500
N367        N  0.05253402  0.04242256  0.78385302    -0.03300
N368        N  0.06396820  0.06486153  0.79963656    -0.62200
Mn369      Mn  0.07955266  0.49813640  0.74402052     1.10700
C370        C  0.09907609  0.07892891  0.79320596     1.00800
C371        C  0.09791380  0.41775986  0.79471758     1.00900
N372        N  0.43038209  0.45507822  0.76931330    -0.04400
N373        N  0.40106966  0.43211908  0.77460910    -0.59800
N374        N  0.45770135  0.04280943  0.78350626    -0.03700
N375        N  0.44702114  0.06614036  0.79902730    -0.56500
N376        N  0.43060650  0.04249964  0.76848518    -0.05000
N377        N  0.40133250  0.06563288  0.77356838    -0.59400
N378        N  0.45731386  0.45516389  0.78439878    -0.04000
N379        N  0.44638350  0.43234759  0.80025688    -0.56500
Mn380      Mn  0.42995512  0.49824198  0.74357034     1.20200
Mn381      Mn  0.00475044  0.49893475  0.78456844     1.10100
Cl382      Cl  0.00472993  0.49811016  0.74411144    -0.84500
C383        C  0.41153158  0.41763028  0.79379606     0.97800
C384        C  0.41212927  0.08074585  0.79247747     0.97600
N385        N  0.25710978  0.11889939  0.15509233    -0.35200
N386        N  0.19697843  0.12550909  0.12220256    -0.55700
N387        N  0.25761848  0.13106068  0.08987375    -0.35200
N388        N  0.31770914  0.12121528  0.12229171    -0.55700
C389        C  0.22476659  0.10970646  0.16660946     0.28400
C390        C  0.28912869  0.10911741  0.16680465     0.28400
C391        C  0.22542257  0.12738087  0.07744319     0.28400
C392        C  0.28918018  0.12407692  0.07750025     0.28400
C393        C  0.17389699  0.12789335  0.13961657     0.37000
C394        C  0.17459822  0.13632989  0.10538137     0.37000
C395        C  0.34095086  0.12315193  0.13970802     0.37000
C396        C  0.34098698  0.12867776  0.10536901     0.37000
C397        C  0.23647630  0.09447846  0.18611590    -0.20400
C398        C  0.27700005  0.09420199  0.18626005    -0.20400
C399        C  0.23663085  0.11822011  0.05687318    -0.20400
C400        C  0.27694630  0.11610427  0.05691623    -0.20400
C401        C  0.13656134  0.13999370  0.13380575    -0.21500
C402        C  0.13706186  0.14557882  0.11214708    -0.21500
C403        C  0.37929366  0.13125193  0.13377410    -0.21500
C404        C  0.37928615  0.13485714  0.11203752    -0.21500
C405        C  0.18515322  0.11652345  0.16040434    -0.16800
C406        C  0.32886894  0.11476930  0.16070285    -0.16800
C407        C  0.32865633  0.12778584  0.08390991    -0.16800
C408        C  0.18654816  0.13473887  0.08387776    -0.16800
H409        H  0.21779624  0.08492749  0.19902198     0.16100
H410        H  0.29541382  0.08426701  0.19925889     0.16100
H411        H  0.21774627  0.11394348  0.04320269     0.16100
H412        H  0.29521458  0.10991814  0.04328820     0.16100
H413        H  0.11146697  0.14402254  0.14407807     0.14300
H414        H  0.11233741  0.15455147  0.10244982     0.14300
H415        H  0.40475915  0.13385875  0.14400997     0.14300
H416        H  0.40470844  0.14078544  0.10226154     0.14300
H417        H  0.25746584  0.13446379  0.14094299     0.27600
H418        H  0.25821038  0.14262057  0.10507577     0.27600
N419        N  0.25562501  0.37880337  0.15737401    -0.35200
N420        N  0.19488297  0.37301148  0.12446419    -0.55700
N421        N  0.25514022  0.36475031  0.09221162    -0.35200
N422        N  0.31584346  0.37344127  0.12448620    -0.55700
C423        C  0.22349636  0.39021455  0.16841198     0.28400
C424        C  0.28787153  0.39015890  0.16845867     0.28400
C425        C  0.22305549  0.36812528  0.07960624     0.28400
C426        C  0.28704851  0.36852747  0.07961831     0.28400
C427        C  0.17165335  0.37286540  0.14186651     0.37000
C428        C  0.17162997  0.36393437  0.10774146     0.37000
C429        C  0.33912355  0.37227194  0.14195665     0.37000
C430        C  0.33868322  0.36365912  0.10778059     0.37000
C431        C  0.23553385  0.40813510  0.18701817    -0.20400
C432        C  0.27601846  0.40810915  0.18704270    -0.20400
C433        C  0.23468941  0.37411985  0.05870006    -0.20400
C434        C  0.27509797  0.37441888  0.05871092    -0.20400
C435        C  0.13334949  0.36407183  0.13613731    -0.21500
C436        C  0.13335377  0.35828051  0.11455488    -0.21500
C437        C  0.37701092  0.36204957  0.13629889    -0.21500
C438        C  0.37670378  0.35644687  0.11468809    -0.21500
C439        C  0.18366742  0.38413404  0.16245270    -0.16800
C440        C  0.32763222  0.38383167  0.16254609    -0.16800
C441        C  0.32642104  0.36354186  0.08623419    -0.16800
C442        C  0.18379524  0.36311296  0.08624889    -0.16800
H443        H  0.21707046  0.42023633  0.19927990     0.16100
H444        H  0.29460046  0.42015806  0.19932527     0.16100
H445        H  0.21601134  0.37732000  0.04482857     0.16100
H446        H  0.29357625  0.37782203  0.04483963     0.16100
H447        H  0.10789552  0.36264385  0.14637931     0.14300
H448        H  0.10787464  0.35154190  0.10493871     0.14300
H449        H  0.40238155  0.35944815  0.14662286     0.14300
H450        H  0.40181968  0.34867862  0.10511678     0.14300
H451        H  0.25554377  0.36134534  0.14399596     0.27600
H452        H  0.25528730  0.35531783  0.10791106     0.27600
C453        C  0.12864091  0.09043553  0.80818241    -0.11800
C454        C  0.15441449  0.09692850  0.82085313    -0.13400
C455        C  0.38337799  0.09476193  0.80731344    -0.11800
C456        C  0.35813768  0.10289542  0.82000798    -0.13400
C457        C  0.12684441  0.40508410  0.81001604    -0.11800
C458        C  0.15245830  0.39807414  0.82283959    -0.13400
C459        C  0.35642380  0.39848686  0.82136563    -0.11800
C460        C  0.38222479  0.40508189  0.80872355    -0.13400
C461        C  0.13121326  0.15040195  0.05544914    -0.11800
C462        C  0.15719446  0.14132724  0.06752999    -0.13400
C463        C  0.38336811  0.14320148  0.05539477    -0.11800
C464        C  0.35800299  0.13323455  0.06755088    -0.13400
C465        C  0.15419823  0.35549924  0.07017276    -0.11800
C466        C  0.12807578  0.34542784  0.05846446    -0.13400
C467        C  0.35580015  0.35622442  0.07003337    -0.11800
C468        C  0.38107905  0.34606746  0.05784878    -0.13400
C469        C  0.13074744  0.35008669  0.94300694    -0.11800
C470        C  0.15674535  0.36014648  0.93119348    -0.13400
C471        C  0.38390043  0.35162121  0.94139128    -0.11800
C472        C  0.35843549  0.36300715  0.92964303    -0.13400
C473        C  0.12979831  0.15027337  0.94019205    -0.11800
C474        C  0.15530141  0.13911347  0.92841829    -0.13400
C475        C  0.35707099  0.14106057  0.92769459    -0.11800
C476        C  0.38297197  0.15116305  0.93949753    -0.13400
C477        C  0.35888844  0.39281182  0.17773607    -0.11800
C478        C  0.38501199  0.40337039  0.18952018    -0.13400
C479        C  0.12758685  0.40394524  0.18981741    -0.11800
C480        C  0.15289390  0.39326325  0.17770568    -0.13400
C481        C  0.35978718  0.10887317  0.17637193    -0.11800
C482        C  0.38640255  0.10045114  0.18826510    -0.13400
C483        C  0.12834003  0.10030925  0.18825821    -0.11800
C484        C  0.15391005  0.10941175  0.17581120    -0.13400
C485        C  0.10259355  0.12223679  0.68704697    -0.11800
C486        C  0.11286567  0.14881088  0.67593304    -0.13400
C487        C  0.11820646  0.34890391  0.67752021    -0.11800
C488        C  0.10672930  0.37459085  0.68871551    -0.13400
C489        C  0.40607324  0.12103669  0.68545583    -0.11800
C490        C  0.39759517  0.14792531  0.67403336    -0.13400
C491        C  0.39697632  0.34646629  0.67674908    -0.11800
C492        C  0.40602198  0.37239022  0.68850036    -0.13400
C493        C  0.36226628  0.12595412  0.55502449    -0.11800
C494        C  0.37334346  0.15246216  0.56587413    -0.13400
C495        C  0.36173572  0.38034285  0.55767761    -0.11800
C496        C  0.37249042  0.35346774  0.56845975    -0.13400
C497        C  0.16115623  0.12745414  0.55646213    -0.11800
C498        C  0.15136031  0.15315998  0.56819226    -0.13400
C499        C  0.15329906  0.35213497  0.57014832    -0.11800
C500        C  0.16213865  0.37868483  0.55863909    -0.13400
C501        C  0.10720393  0.12535969  0.31292174    -0.11800
C502        C  0.11676047  0.15177420  0.32445882    -0.13400
C503        C  0.11870777  0.35495148  0.32437411    -0.11800
C504        C  0.10882472  0.38145920  0.31288493    -0.13400
C505        C  0.15071415  0.15323136  0.43219957    -0.11800
C506        C  0.16001968  0.12629946  0.44344335    -0.13400
C507        C  0.14690025  0.35152413  0.43274113    -0.11800
C508        C  0.15690293  0.37680656  0.44474568    -0.13400
C509        C  0.39341229  0.15132081  0.32263770    -0.11800
C510        C  0.40380844  0.12514381  0.31120164    -0.13400
C511        C  0.39314535  0.35471796  0.32328607    -0.11800
C512        C  0.40362652  0.38124462  0.31196073    -0.13400
C513        C  0.36308733  0.15119791  0.43067931    -0.11800
C514        C  0.35462743  0.12464515  0.44223762    -0.13400
C515        C  0.36443872  0.35057819  0.43156635    -0.11800
C516        C  0.35638271  0.37647274  0.44353273    -0.13400
N517        N  0.36856398  0.75150490  0.40904157    -0.35200
N518        N  0.37566237  0.69269674  0.37619912    -0.55700
N519        N  0.37897439  0.75267709  0.34324110    -0.35200
N520        N  0.37555570  0.81148357  0.37664124    -0.55700
C521        C  0.37218659  0.71973948  0.42150234     0.28400
C522        C  0.37225912  0.78265502  0.42175902     0.28400
C523        C  0.38972294  0.72119940  0.33182772     0.28400
C524        C  0.38970707  0.78462761  0.33203263     0.28400
C525        C  0.36783317  0.66956955  0.39309921     0.37000
C526        C  0.37429287  0.66998143  0.35877389     0.37000
C527        C  0.36854463  0.83411843  0.39370965     0.37000
C528        C  0.37489527  0.83496230  0.35935500     0.37000
C529        C  0.37774524  0.73080713  0.44249299    -0.20400
C530        C  0.37776632  0.77053006  0.44265549    -0.20400
C531        C  0.40645298  0.73337375  0.31283092    -0.20400
C532        C  0.40642940  0.77325225  0.31295365    -0.20400
C533        C  0.36171352  0.63196883  0.38635181    -0.21500
C534        C  0.36586740  0.63222469  0.36466443    -0.21500
C535        C  0.36363858  0.87216803  0.38720833    -0.21500
C536        C  0.36775002  0.87271990  0.36551564    -0.21500
C537        C  0.36826572  0.68117045  0.41465399    -0.16800
C538        C  0.36881924  0.82161176  0.41520924    -0.16800
C539        C  0.38439869  0.82371155  0.33839021    -0.16800
C540        C  0.38430568  0.68186272  0.33792700    -0.16800
H541        H  0.38107517  0.71220631  0.45629801     0.16100
H542        H  0.38115530  0.78842964  0.45660698     0.16100
H543        H  0.41788616  0.71539894  0.30025122     0.16100
H544        H  0.41787803  0.79175615  0.30048702     0.16100
H545        H  0.35554726  0.60676495  0.39605503     0.14300
H546        H  0.36360161  0.60727453  0.35444069     0.14300
H547        H  0.35842776  0.89713610  0.39708613     0.14300
H548        H  0.36639580  0.89821220  0.35547778     0.14300
H549        H  0.35976235  0.75184650  0.39325073     0.27600
H550        H  0.36242692  0.75241714  0.35708754     0.27600
N551        N  0.13104963  0.81213416  0.37822996    -0.35200
N552        N  0.12739814  0.75334602  0.34506187    -0.55700
N553        N  0.13295615  0.69437387  0.37796496    -0.35200
N554        N  0.13778264  0.75293278  0.41070245    -0.56500
C555        C  0.13722410  0.83364441  0.36048442     0.28400
C556        C  0.14310955  0.83333311  0.39508965     0.28400
C557        C  0.13775508  0.67292493  0.36020993     0.28400
C558        C  0.14607207  0.67302303  0.39467103     0.28400
C559        C  0.11761034  0.78502025  0.33344401     0.37000
C560        C  0.11727844  0.72206399  0.33339926     0.37000
C561        C  0.13382093  0.78388720  0.42348275     0.37000
C562        C  0.13597450  0.72132735  0.42335863     0.37000
C563        C  0.15334189  0.86893153  0.36609910    -0.20400
C564        C  0.15717023  0.86870159  0.38792321    -0.20400
C565        C  0.15409154  0.63754102  0.36565703    -0.20400
C566        C  0.15955136  0.63766346  0.38736540    -0.20400
C567        C  0.10167875  0.77381514  0.31409571    -0.21500
C568        C  0.10142603  0.73393772  0.31408129    -0.21500
C569        C  0.12910082  0.77191630  0.44442634    -0.21500
C570        C  0.13055515  0.73220236  0.44435229    -0.21500
C571        C  0.12514635  0.82364288  0.33969823    -0.16800
C572        C  0.13966922  0.82239725  0.41677777    -0.16800
C573        C  0.14344184  0.68335663  0.41641250    -0.16800
C574        C  0.12452548  0.68318719  0.33959430    -0.16800
H575        H  0.16104555  0.89260043  0.35557406     0.16100
H576        H  0.16852300  0.89216214  0.39743652     0.16100
H577        H  0.16086623  0.61387048  0.35511168     0.16100
H578        H  0.17130870  0.61398834  0.39673798     0.16100
H579        H  0.09162907  0.79239991  0.30127244     0.14300
H580        H  0.09119182  0.71579416  0.30124205     0.14300
H581        H  0.12643889  0.78992492  0.45837111     0.14300
H582        H  0.12909226  0.71355008  0.45821964     0.14300
H583        H  0.11505690  0.78666419  0.37894595     0.27600
H584        H  0.11698808  0.71988418  0.37888485     0.27600
N585        N  0.33132735  0.95572507  0.47514106    -0.04700
N586        N  0.35556341  0.92652348  0.47169068    -0.56800
N587        N  0.30311622  0.54430686  0.45974264    -0.04400
N588        N  0.30671004  0.57320420  0.44616194    -0.58900
N589        N  0.33137141  0.54515035  0.47405765    -0.03900
N590        N  0.35491854  0.57483953  0.47050195    -0.56800
N591        N  0.30282445  0.95574484  0.46095793    -0.03600
N592        N  0.30686338  0.92681534  0.44764195    -0.59300
C593        C  0.33956754  0.90881830  0.45455981     0.97500
C594        C  0.33891094  0.59190884  0.45310208     0.97300
N595        N  0.18423994  0.54572611  0.47484514    -0.04900
N596        N  0.16089388  0.57579679  0.47158707    -0.57400
N597        N  0.21141516  0.95569871  0.46171294    -0.03000
N598        N  0.20687349  0.92629642  0.44873330    -0.58600
N599        N  0.18368822  0.95597320  0.47624463    -0.04900
N600        N  0.15943442  0.92653801  0.47332292    -0.57600
N601        N  0.21166004  0.54460212  0.46015838    -0.02600
N602        N  0.20765682  0.57361663  0.44663565    -0.58700
Mn603      Mn  0.25735329  0.50003239  0.45998317     1.18400
C604        C  0.17607839  0.59278442  0.45395673     0.99600
C605        C  0.17463794  0.90829558  0.45617400     1.00300
N606        N  0.33353983  0.54670008  0.52424993    -0.04900
N607        N  0.35856063  0.57537013  0.52730250    -0.61200
N608        N  0.30602405  0.95859146  0.54025760    -0.03700
N609        N  0.31167977  0.93059145  0.55425576    -0.61900
N610        N  0.33320632  0.95775368  0.52542699    -0.04400
N611        N  0.35799782  0.92904971  0.52901208    -0.61500
N612        N  0.30614151  0.54701138  0.53896628    -0.03300
N613        N  0.31180297  0.57572930  0.55230525    -0.62200
Mn614      Mn  0.33399912  0.50131439  0.49961840     1.10700
C615        C  0.34434044  0.59317524  0.54477568     1.00800
C616        C  0.34399534  0.91249841  0.54699200     1.00900
N617        N  0.18562155  0.95816768  0.52651794    -0.04400
N618        N  0.16188974  0.92865722  0.53021104    -0.59800
N619        N  0.21435138  0.54738924  0.53933767    -0.03700
N620        N  0.21066393  0.57688985  0.55231547    -0.56500
N621        N  0.18586628  0.54729279  0.52512997    -0.05000
N622        N  0.16201211  0.57690397  0.52824683    -0.59400
N623        N  0.21401185  0.95891157  0.54077519    -0.04000
N624        N  0.21030725  0.93012270  0.55442602    -0.56500
Mn625      Mn  0.18321718  0.50167357  0.50060639     1.20200
Mn626      Mn  0.26007805  0.50291089  0.54034683     1.10100
Cl627      Cl  0.25865137  0.50145095  0.50015623    -0.84500
C628        C  0.17790765  0.91159423  0.54761950     0.97800
C629        C  0.17820647  0.59506925  0.54516276     0.97600
N630        N  0.38653602  0.69144878  0.61994868    -0.35200
N631        N  0.38418829  0.75157121  0.58750585    -0.55700
N632        N  0.38506675  0.80857820  0.62136270    -0.35200
N633        N  0.38936072  0.74831072  0.65342323    -0.55700
C634        C  0.39271134  0.67066293  0.60210439     0.28400
C635        C  0.39679779  0.66890625  0.63675031     0.28400
C636        C  0.39098820  0.83107996  0.60398705     0.28400
C637        C  0.39589023  0.82935635  0.63859367     0.28400
C638        C  0.37560798  0.72085005  0.57520089     0.37000
C639        C  0.37474571  0.78329797  0.57598121     0.37000
C640        C  0.38545389  0.71640700  0.66567763     0.37000
C641        C  0.38542140  0.77893270  0.66641665     0.37000
C642        C  0.40712175  0.63448644  0.60757985    -0.20400
C643        C  0.40987305  0.63341370  0.62942819    -0.20400
C644        C  0.40555964  0.86665904  0.61019092    -0.20400
C645        C  0.40889156  0.86551430  0.63201665    -0.20400
C646        C  0.36163781  0.73309370  0.55552760    -0.21500
C647        C  0.36107991  0.77277426  0.55602339    -0.21500
C648        C  0.37887939  0.72676414  0.68665679    -0.21500
C649        C  0.37890630  0.76648527  0.68712946    -0.21500
C650        C  0.38173408  0.68206034  0.58130224    -0.16800
C651        C  0.39200675  0.67846861  0.65847525    -0.16800
C652        C  0.39183817  0.81753964  0.66009930    -0.16800
C653        C  0.38017599  0.82151859  0.58296780    -0.16800
H654        H  0.41416316  0.61102372  0.59694422     0.16100
H655        H  0.41951518  0.60888902  0.63884711     0.16100
H656        H  0.41260320  0.89106583  0.60004938     0.16100
H657        H  0.41902080  0.88897517  0.64192078     0.16100
H658        H  0.35290118  0.71532766  0.54221283     0.14300
H659        H  0.35186021  0.79167806  0.54315773     0.14300
H660        H  0.37559840  0.70772372  0.70026794     0.14300
H661        H  0.37562327  0.78414189  0.70117069     0.14300
H662        H  0.37114995  0.71728969  0.62068800     0.27600
H663        H  0.36975171  0.78265672  0.62157045     0.27600
N664        N  0.13494032  0.80930221  0.62351492    -0.35200
N665        N  0.14313796  0.75149369  0.59047232    -0.55700
N666        N  0.13157190  0.69128867  0.62231492    -0.35200
N667        N  0.12699184  0.74909678  0.65580227    -0.55700
C668        C  0.14715717  0.83176171  0.60713511     0.28400
C669        C  0.13826443  0.83039345  0.64148345     0.28400
C670        C  0.14248659  0.66948493  0.60552319     0.28400
C671        C  0.13236633  0.66831706  0.63982203     0.28400
C672        C  0.14266030  0.78333419  0.57794729     0.37000
C673        C  0.14191806  0.72079607  0.57733106     0.37000
C674        C  0.11818151  0.78011613  0.66780930     0.37000
C675        C  0.11603984  0.71770412  0.66718277     0.37000
C676        C  0.15817553  0.86770485  0.61481377    -0.20400
C677        C  0.15247337  0.86685226  0.63647028    -0.20400
C678        C  0.14981732  0.63200240  0.61246328    -0.20400
C679        C  0.14330887  0.63125176  0.63405217    -0.20400
C680        C  0.14145903  0.77283482  0.55668766    -0.21500
C681        C  0.14110476  0.73318541  0.55629684    -0.21500
C682        C  0.10237955  0.76837805  0.68710840    -0.21500
C683        C  0.10104579  0.72878380  0.68671696    -0.21500
C684        C  0.14661814  0.82151807  0.58536011    -0.16800
C685        C  0.12565936  0.81876402  0.66193585    -0.16800
C686        C  0.12090624  0.67916063  0.66056762    -0.16800
C687        C  0.14423810  0.68184675  0.58398958    -0.16800
H688        H  0.16875692  0.89223673  0.60574229     0.16100
H689        H  0.15769847  0.89056225  0.64726463     0.16100
H690        H  0.15849432  0.60751377  0.60294401     0.16100
H691        H  0.14600642  0.60613621  0.64430197     0.16100
H692        H  0.14163503  0.79173764  0.54289652     0.14300
H693        H  0.14080261  0.71550930  0.54214682     0.14300
H694        H  0.09289406  0.78642612  0.70012619     0.14300
H695        H  0.09029626  0.71028714  0.69937063     0.14300
H696        H  0.12046898  0.78307857  0.62218495     0.27600
H697        H  0.11998115  0.71892751  0.62155285     0.27600
N698        N  0.46141713  0.92802207  0.27440948    -0.04700
N699        N  0.45553899  0.89878776  0.28749990    -0.56800
N700        N  0.43039773  0.95894033  0.22830338    -0.04400
N701        N  0.40118724  0.95363605  0.21485735    -0.58900
N702        N  0.45785682  0.93259353  0.22578646    -0.03900
N703        N  0.44693220  0.90798612  0.21073865    -0.56800
N704        N  0.43442088  0.95487065  0.27688311    -0.03600
N705        N  0.40876091  0.94345523  0.29151180    -0.59300
C706        C  0.42301643  0.90868288  0.29818285     0.97500
C707        C  0.41177367  0.92212125  0.20389976     0.97300
N708        N  0.45882511  0.57340026  0.22536237    -0.04900
N709        N  0.44819671  0.59757818  0.20989504    -0.57400
N710        N  0.43478445  0.55167230  0.27656671    -0.03000
N711        N  0.40920435  0.56302877  0.29118588    -0.58600
N712        N  0.46173938  0.57856392  0.27389495    -0.04900
N713        N  0.45586648  0.60774862  0.28683650    -0.57600
N714        N  0.43143687  0.54697549  0.22804979    -0.02600
N715        N  0.40264308  0.55171033  0.21430709    -0.58700
Mn716      Mn  0.43193781  0.00309042  0.25307429     1.18400
C717        C  0.41335441  0.58298430  0.20303936     0.99600
C718        C  0.42339561  0.59781457  0.29763101     1.00300
N719        N  0.05556138  0.93298703  0.22634011    -0.04900
N720        N  0.06598843  0.90872093  0.21109578    -0.61200
N721        N  0.07826603  0.95502842  0.27762994    -0.03700
N722        N  0.10358452  0.94360989  0.29251173    -0.61900
N723        N  0.05137273  0.92814348  0.27483776    -0.04400
N724        N  0.05705273  0.89885454  0.28794371    -0.61500
N725        N  0.08333998  0.95897276  0.22914871    -0.03300
N726        N  0.11240608  0.95362199  0.21571735    -0.62200
Mn727      Mn  0.00661298  0.92972104  0.24976433     1.10700
C728        C  0.10125075  0.92255885  0.20448795     1.00800
C729        C  0.08930104  0.90878960  0.29896588     1.00900
N730        N  0.05142278  0.57864072  0.27460169    -0.04400
N731        N  0.05636151  0.60768107  0.28777240    -0.59800
N732        N  0.08407527  0.54742876  0.22900218    -0.03700
N733        N  0.11323571  0.55222984  0.21552946    -0.56500
N734        N  0.05657375  0.57365754  0.22593359    -0.05000
N735        N  0.06734420  0.59759944  0.21039928    -0.59400
N736        N  0.07845787  0.55190254  0.27761526    -0.04000
N737        N  0.10321247  0.56328514  0.29274085    -0.56500
Mn738      Mn  0.00713429  0.57682699  0.24932820     1.20200
Mn739      Mn  0.08184879  0.00328889  0.25393702     1.10100
Cl740      Cl  0.00689455  0.00320052  0.25156190    -0.84500
C741        C  0.08839457  0.59789644  0.29909472     0.97800
C742        C  0.10254466  0.58329311  0.20395976     0.97600
N743        N  0.46125328  0.67753268  0.97239474    -0.04700
N744        N  0.43205677  0.65351847  0.96828512    -0.56800
N745        N  0.05182349  0.70599506  0.95890652    -0.04400
N746        N  0.08064743  0.70163058  0.94517332    -0.58900
N747        N  0.05191797  0.67772958  0.97301125    -0.03900
N748        N  0.08092320  0.65338044  0.96909446    -0.56800
N749        N  0.46176885  0.70583140  0.95831321    -0.03600
N750        N  0.43313282  0.70182432  0.94437001    -0.59300
C751        C  0.41483589  0.66937214  0.95086882     0.97500
C752        C  0.09864458  0.66899927  0.95180996     0.97300
N753        N  0.05142415  0.82313283  0.97491791    -0.04900
N754        N  0.08078406  0.84751618  0.97159342    -0.57400
N755        N  0.46145348  0.79612887  0.95960704    -0.03000
N756        N  0.43306941  0.80186923  0.94566856    -0.58600
N757        N  0.46079686  0.82283272  0.97441718    -0.04900
N758        N  0.43182733  0.84746588  0.97082154    -0.57600
N759        N  0.05122947  0.79630271  0.96016078    -0.02600
N760        N  0.08013072  0.80166146  0.94659779    -0.58700
Mn761      Mn  0.00658624  0.75111154  0.95872725     1.18400
C762        C  0.09838611  0.83337566  0.95394361     0.99600
C763        C  0.41483292  0.83366337  0.95293764     1.00300
N764        N  0.05103878  0.67555567  0.02340048    -0.04900
N765        N  0.08124073  0.65217328  0.02666291    -0.61200
N766        N  0.45990059  0.70124121  0.03749514    -0.03700
N767        N  0.43112826  0.69516843  0.05106149    -0.61900
N768        N  0.46018166  0.67446035  0.02272331    -0.04400
N769        N  0.43142852  0.64942631  0.02600342    -0.61500
N770        N  0.04997291  0.70230621  0.03818056    -0.03300
N771        N  0.07922366  0.69788843  0.05172408    -0.62200
Mn772      Mn  0.00616387  0.67477784  0.99788452     1.10700
C773        C  0.09847044  0.66680627  0.04431429     1.00800
C774        C  0.41355070  0.66309609  0.04363901     1.00900
N775        N  0.45915319  0.82020133  0.02482152    -0.04400
N776        N  0.43001919  0.84441741  0.02882164    -0.59800
N777        N  0.04915830  0.79241505  0.03962274    -0.03700
N778        N  0.07768255  0.79666777  0.05363096    -0.56500
N779        N  0.04982000  0.82054402  0.02544477    -0.05000
N780        N  0.07891797  0.84467633  0.02954691    -0.59400
N781        N  0.45912273  0.79169097  0.03878778    -0.04000
N782        N  0.43018649  0.79573009  0.05246805    -0.56500
Mn783      Mn  0.00532984  0.82322866  0.99991354     1.20200
Mn784      Mn  0.00447995  0.74685904  0.03905692     1.10100
Cl785      Cl  0.00561526  0.74900390  0.99889534    -0.84500
C786        C  0.41217251  0.82842158  0.04599759     0.97800
C787        C  0.09599329  0.82912088  0.04707837     0.97600
N788        N  0.19593109  0.88197309  0.87658782    -0.35200
N789        N  0.25523063  0.89061802  0.84348976    -0.55700
N790        N  0.31656391  0.88505825  0.87584255    -0.35200
N791        N  0.25712014  0.87290410  0.90853370    -0.55700
C792        C  0.17303090  0.88007267  0.85896994     0.28400
C793        C  0.17415845  0.86960744  0.89329876     0.28400
C794        C  0.33829360  0.88233677  0.85791879     0.28400
C795        C  0.33933152  0.87291266  0.89224802     0.28400
C796        C  0.22293140  0.89966519  0.83191143     0.37000
C797        C  0.28663578  0.90038111  0.83147910     0.37000
C798        C  0.22571213  0.87237671  0.92161939     0.37000
C799        C  0.28922595  0.87435152  0.92116325     0.37000
C800        C  0.13604369  0.86682917  0.86459032    -0.20400
C801        C  0.13677547  0.86013227  0.88619993    -0.20400
C802        C  0.37556850  0.86900262  0.86304044    -0.20400
C803        C  0.37622255  0.86301817  0.88468535    -0.20400
C804        C  0.23391580  0.91486978  0.81233227    -0.21500
C805        C  0.27425822  0.91529033  0.81205483    -0.21500
C806        C  0.23795116  0.87316570  0.94268201    -0.21500
C807        C  0.27819327  0.87447343  0.94239527    -0.21500
C808        C  0.18379386  0.89223433  0.83823263    -0.16800
C809        C  0.18634801  0.86844782  0.91489570    -0.16800
C810        C  0.32826284  0.87174275  0.91392594    -0.16800
C811        C  0.32619806  0.89369975  0.83728555    -0.16800
H812        H  0.11096761  0.86271999  0.85422964     0.16100
H813        H  0.11233584  0.84985024  0.89562732     0.16100
H814        H  0.39985257  0.86417539  0.85230833     0.16100
H815        H  0.40112484  0.85261381  0.89379963     0.16100
H816        H  0.21486832  0.92432018  0.79949668     0.14300
H817        H  0.29238878  0.92511622  0.79897978     0.14300
H818        H  0.21981442  0.87224643  0.95679065     0.14300
H819        H  0.29718033  0.87463568  0.95624372     0.14300
H820        H  0.22324641  0.89502255  0.87747445     0.27600
H821        H  0.28934674  0.89827492  0.87710408     0.27600
N822        N  0.25602228  0.63139766  0.90608470    -0.35200
N823        N  0.19547572  0.61583054  0.87469079    -0.55700
N824        N  0.25590576  0.61028346  0.84156918    -0.35200
N825        N  0.31662385  0.62077904  0.87363746    -0.55700
C826        C  0.22440398  0.62916501  0.91901136     0.28400
C827        C  0.28835569  0.63032940  0.91859540     0.28400
C828        C  0.22394886  0.59925424  0.83030317     0.28400
C829        C  0.28803569  0.60199207  0.82978336     0.28400
C830        C  0.17202088  0.62505761  0.89124836     0.37000
C831        C  0.17186613  0.61279315  0.85744808     0.37000
C832        C  0.33975554  0.63122483  0.89013991     0.37000
C833        C  0.33977123  0.62033956  0.85618592     0.37000
C834        C  0.23676814  0.62716743  0.94004124    -0.20400
C835        C  0.27712135  0.62778587  0.93978241    -0.20400
C836        C  0.23588596  0.58448976  0.81087181    -0.20400
C837        C  0.27624167  0.58619158  0.81055133    -0.20400
C838        C  0.13323096  0.62683319  0.88459468    -0.21500
C839        C  0.13310768  0.61892563  0.86324523    -0.21500
C840        C  0.37794175  0.63689842  0.88316649    -0.21500
C841        C  0.37795679  0.62993227  0.86170069    -0.21500
C842        C  0.18474836  0.63076626  0.91244165    -0.16800
C843        C  0.32756241  0.63401521  0.91158178    -0.16800
C844        C  0.32758871  0.60933267  0.83556889    -0.16800
C845        C  0.18428541  0.60352802  0.83662979    -0.16800
H846        H  0.21859766  0.62552786  0.95412241     0.16100
H847        H  0.29603210  0.62686343  0.95365534     0.16100
H848        H  0.21744366  0.57362611  0.79819059     0.16100
H849        H  0.29475261  0.57690383  0.79757856     0.16100
H850        H  0.10760842  0.63301592  0.89412742     0.14300
H851        H  0.10734756  0.61796179  0.85313700     0.14300
H852        H  0.40329637  0.64488444  0.89257937     0.14300
H853        H  0.40327459  0.63152997  0.85136747     0.14300
H854        H  0.25552180  0.63797378  0.88999309     0.27600
H855        H  0.25550090  0.62596206  0.85552587     0.27600
N856        N  0.07850147  0.95302178  0.71944356    -0.04700
N857        N  0.10303285  0.92393805  0.71656351    -0.56800
N858        N  0.05007089  0.54149476  0.70386632    -0.04400
N859        N  0.05394193  0.57054763  0.69039623    -0.58900
N860        N  0.07769682  0.54239886  0.71851776    -0.03900
N861        N  0.10119594  0.57225755  0.71526764    -0.56800
N862        N  0.05085547  0.95284976  0.70480593    -0.03600
N863        N  0.05575335  0.92371804  0.69168911    -0.59300
C864        C  0.08813895  0.90595106  0.69929055     0.97500
C865        C  0.08573247  0.58942625  0.69773505     0.97300
N866        N  0.43136375  0.54224707  0.71790384    -0.04900
N867        N  0.40715307  0.57143962  0.71415788    -0.57400
N868        N  0.45964907  0.95267485  0.70445605    -0.03000
N869        N  0.45562188  0.92325922  0.69144552    -0.58600
N870        N  0.43180654  0.95258269  0.71889884    -0.04900
N871        N  0.40800647  0.92285099  0.71596731    -0.57600
N872        N  0.45892488  0.54116914  0.70331761    -0.02600
N873        N  0.45425676  0.56941232  0.68937596    -0.58700
Mn874      Mn  0.00503308  0.99704181  0.70357798     1.18400
C875        C  0.42203729  0.58797904  0.69634176     0.99600
C876        C  0.42356616  0.90489800  0.69885652     1.00300
N877        N  0.07912599  0.54227413  0.76881287    -0.04900
N878        N  0.10886631  0.56467289  0.77405075    -0.61200
N879        N  0.05234814  0.95473206  0.78462378    -0.03700
N880        N  0.06308223  0.93201651  0.80060874    -0.61900
N881        N  0.07951417  0.95465216  0.76974555    -0.04400
N882        N  0.10886524  0.93182898  0.77536367    -0.61500
N883        N  0.05223800  0.54258729  0.78382501    -0.03300
N884        N  0.06359690  0.56517092  0.79955717    -0.62200
Mn885      Mn  0.07981046  0.99808976  0.74397249     1.10700
C886        C  0.09867865  0.57926707  0.79310892     1.00800
C887        C  0.09810148  0.91736689  0.79449918     1.00900
N888        N  0.43062114  0.95490542  0.76917480    -0.04400
N889        N  0.40125781  0.93203762  0.77449669    -0.59800
N890        N  0.45762326  0.54300938  0.78351480    -0.03700
N891        N  0.44701505  0.56654753  0.79895381    -0.56500
N892        N  0.43062220  0.54275952  0.76845206    -0.05000
N893        N  0.40150811  0.56616320  0.77340288    -0.59400
N894        N  0.45751430  0.95504494  0.78428224    -0.04000
N895        N  0.44650651  0.93235840  0.80017530    -0.56500
Mn896      Mn  0.43011455  0.99812667  0.74347989     1.20200
Mn897      Mn  0.00503744  0.99874978  0.78452668     1.10100
Cl898      Cl  0.00499050  0.99806634  0.74407049    -0.84500
C899        C  0.41164715  0.91767085  0.79372044     0.97800
C900        C  0.41225496  0.58132761  0.79230175     0.97600
N901        N  0.25728069  0.61945198  0.15507315    -0.35200
N902        N  0.19693254  0.62492940  0.12220424    -0.55700
N903        N  0.25742848  0.62974194  0.08980680    -0.35200
N904        N  0.31778723  0.62108213  0.12216515    -0.55700
C905        C  0.22500276  0.60987093  0.16656810     0.28400
C906        C  0.28938285  0.60945080  0.16668245     0.28400
C907        C  0.22519723  0.62588010  0.07741439     0.28400
C908        C  0.28900804  0.62294271  0.07741086     0.28400
C909        C  0.17395095  0.62769954  0.13963915     0.37000
C910        C  0.17444892  0.63536063  0.10534596     0.37000
C911        C  0.34100445  0.62377754  0.13956557     0.37000
C912        C  0.34087226  0.62875317  0.10518336     0.37000
C913        C  0.23683890  0.59418166  0.18593713    -0.20400
C914        C  0.27736373  0.59400339  0.18602979    -0.20400
C915        C  0.23639079  0.61657640  0.05686181    -0.20400
C916        C  0.27673623  0.61468954  0.05686626    -0.20400
C917        C  0.13656488  0.63961930  0.13381045    -0.21500
C918        C  0.13693456  0.64470919  0.11211249    -0.21500
C919        C  0.37915512  0.63255326  0.13357441    -0.21500
C920        C  0.37904139  0.63581700  0.11180892    -0.21500
C921        C  0.18532254  0.61663696  0.16045526    -0.16800
C922        C  0.32910492  0.61534489  0.16058968    -0.16800
C923        C  0.32847269  0.62743909  0.08372631    -0.16800
C924        C  0.18634405  0.63350420  0.08383318    -0.16800
H925        H  0.21823335  0.58416918  0.19876935     0.16100
H926        H  0.29585527  0.58371834  0.19891292     0.16100
H927        H  0.21748285  0.61221335  0.04320928     0.16100
H928        H  0.29500100  0.60863816  0.04321802     0.16100
H929        H  0.11151873  0.64382129  0.14409607     0.14300
H930        H  0.11214179  0.65343342  0.10239826     0.14300
H931        H  0.40455027  0.63585913  0.14379788     0.14300
H932        H  0.40430674  0.64215238  0.10198918     0.14300
H933        H  0.25752926  0.63537155  0.14102742     0.27600
H934        H  0.25802001  0.64150711  0.10495883     0.27600
N935        N  0.25546871  0.87917451  0.15741261    -0.35200
N936        N  0.19495572  0.87325149  0.12450519    -0.55700
N937        N  0.25502734  0.86405831  0.09228192    -0.35200
N938        N  0.31551826  0.87325888  0.12451794    -0.55700
C939        C  0.22338230  0.89108195  0.16829803     0.28400
C940        C  0.28770135  0.89097799  0.16833142     0.28400
C941        C  0.22300201  0.86853083  0.07975218     0.28400
C942        C  0.28693113  0.86847040  0.07976167     0.28400
C943        C  0.17184792  0.87251765  0.14195326     0.37000
C944        C  0.17181661  0.86350879  0.10785557     0.37000
C945        C  0.33863612  0.87168080  0.14204593     0.37000
C946        C  0.33821119  0.86257894  0.10791957     0.37000
C947        C  0.23540361  0.90989556  0.18663608    -0.20400
C948        C  0.27590327  0.90984133  0.18665230    -0.20400
C949        C  0.23464392  0.87579504  0.05896627    -0.20400
C950        C  0.27506289  0.87578136  0.05897478    -0.20400
C951        C  0.13378298  0.86261945  0.13633515    -0.21500
C952        C  0.13378149  0.85679218  0.11475762    -0.21500
C953        C  0.37622856  0.86025160  0.13653664    -0.21500
C954        C  0.37592468  0.85433139  0.11494993    -0.21500
C955        C  0.18364809  0.88442060  0.16244565    -0.16800
C956        C  0.32735594  0.88399977  0.16252443    -0.16800
C957        C  0.32618362  0.86288948  0.08634744    -0.16800
C958        C  0.18380489  0.86327806  0.08634645    -0.16800
H959        H  0.21692560  0.92254421  0.19872260     0.16100
H960        H  0.29452545  0.92241078  0.19875655     0.16100
H961        H  0.21595771  0.88011015  0.04518590     0.16100
H962        H  0.29359789  0.88004026  0.04519487     0.16100
H963        H  0.10847459  0.86051606  0.14664880     0.14300
H964        H  0.10844250  0.84932777  0.10520029     0.14300
H965        H  0.40141123  0.85705952  0.14694608     0.14300
H966        H  0.40085756  0.84569543  0.10546768     0.14300
H967        H  0.25536845  0.86104604  0.14429349     0.27600
H968        H  0.25510257  0.85354449  0.10780072     0.27600
C969        C  0.12820840  0.59081979  0.80808936    -0.11800
C970        C  0.15397552  0.59719405  0.82078176    -0.13400
C971        C  0.38334527  0.59515778  0.80707950    -0.11800
C972        C  0.35793265  0.60296823  0.81972539    -0.13400
C973        C  0.12704453  0.90462654  0.80976405    -0.11800
C974        C  0.15266888  0.89770279  0.82258949    -0.13400
C975        C  0.35645344  0.89894819  0.82130418    -0.11800
C976        C  0.38227320  0.90541203  0.80866327    -0.13400
C977        C  0.13109189  0.64996195  0.05545428    -0.11800
C978        C  0.15703426  0.64046168  0.06748204    -0.13400
C979        C  0.38271872  0.64397694  0.05506465    -0.11800
C980        C  0.35759869  0.63356277  0.06728613    -0.13400
C981        C  0.15422657  0.85593586  0.07025035    -0.11800
C982        C  0.12816297  0.84590007  0.05851074    -0.13400
C983        C  0.35558074  0.85571074  0.07014174    -0.11800
C984        C  0.38092974  0.84582478  0.05793042    -0.13400
C985        C  0.13079678  0.85076707  0.94287758    -0.11800
C986        C  0.15676445  0.86050775  0.93095812    -0.13400
C987        C  0.38391605  0.85233130  0.94138057    -0.11800
C988        C  0.35845026  0.86340834  0.92952409    -0.13400
C989        C  0.12987900  0.65118202  0.94008864    -0.11800
C990        C  0.15530473  0.63994803  0.92830233    -0.13400
C991        C  0.35730028  0.64231571  0.92739432    -0.11800
C992        C  0.38307409  0.65252669  0.93922868    -0.13400
C993        C  0.35867174  0.89288775  0.17766907    -0.11800
C994        C  0.38480763  0.90333777  0.18946165    -0.13400
C995        C  0.12734378  0.90408802  0.18966549    -0.11800
C996        C  0.15278666  0.89349335  0.17762853    -0.13400
C997        C  0.36011243  0.60947564  0.17626098    -0.11800
C998        C  0.38656983  0.60098825  0.18827961    -0.13400
C999        C  0.12859758  0.60046736  0.18841421    -0.11800
C1000       C  0.15415005  0.60955464  0.17593507    -0.13400
C1001       C  0.10221489  0.62212429  0.68692095    -0.11800
C1002       C  0.11235833  0.64861335  0.67570414    -0.13400
C1003       C  0.11756448  0.84866599  0.67728960    -0.11800
C1004       C  0.10647151  0.87445031  0.68853642    -0.13400
C1005       C  0.40596552  0.62109274  0.68555668    -0.11800
C1006       C  0.39738754  0.64797341  0.67415085    -0.13400
C1007       C  0.39778224  0.84633943  0.67644660    -0.11800
C1008       C  0.40680179  0.87227829  0.68820476    -0.13400
C1009       C  0.36242883  0.62541840  0.55517895    -0.11800
C1010       C  0.37351785  0.65185987  0.56605601    -0.13400
C1011       C  0.36134942  0.87992989  0.55759568    -0.11800
C1012       C  0.37211564  0.85292496  0.56829079    -0.13400
C1013       C  0.16119032  0.62712400  0.55617140    -0.11800
C1014       C  0.15153005  0.65277681  0.56794803    -0.13400
C1015       C  0.15336704  0.85190463  0.56986322    -0.11800
C1016       C  0.16218952  0.87858833  0.55846331    -0.13400
C1017       C  0.10713579  0.62529411  0.31320520    -0.11800
C1018       C  0.11690637  0.65181016  0.32463959    -0.13400
C1019       C  0.11833720  0.85517390  0.32462744    -0.11800
C1020       C  0.10855479  0.88163419  0.31305958    -0.13400
C1021       C  0.15118579  0.65349161  0.43223762    -0.11800
C1022       C  0.16049424  0.62656773  0.44349450    -0.13400
C1023       C  0.14663742  0.85158637  0.43289007    -0.11800
C1024       C  0.15654847  0.87686540  0.44493982    -0.13400
C1025       C  0.39310632  0.65128529  0.32269835    -0.11800
C1026       C  0.40376647  0.62507260  0.31134746    -0.13400
C1027       C  0.39284920  0.85475741  0.32322499    -0.11800
C1028       C  0.40330516  0.88127439  0.31188930    -0.13400
C1029       C  0.36299753  0.65146092  0.43070836    -0.11800
C1030       C  0.35458315  0.62495928  0.44231485    -0.13400
C1031       C  0.36426080  0.85072196  0.43153751    -0.11800
C1032       C  0.35612506  0.87656961  0.44352284    -0.13400
N1033       N  0.86883201  0.25124679  0.40905143    -0.35200
N1034       N  0.87632354  0.19241994  0.37624532    -0.55700
N1035       N  0.87951921  0.25253142  0.34333097    -0.35200
N1036       N  0.87552248  0.31134148  0.37665552    -0.55700
C1037       C  0.87210517  0.21947532  0.42153988     0.28400
C1038       C  0.87208256  0.28240815  0.42179893     0.28400
C1039       C  0.89032519  0.22109553  0.33190143     0.28400
C1040       C  0.89001899  0.28452445  0.33208871     0.28400
C1041       C  0.86849213  0.16924669  0.39311992     0.37000
C1042       C  0.87515644  0.16972311  0.35881600     0.37000
C1043       C  0.86870653  0.33396812  0.39374522     0.37000
C1044       C  0.87502785  0.33485923  0.35938691     0.37000
C1045       C  0.87698266  0.23055016  0.44257572    -0.20400
C1046       C  0.87695568  0.27026964  0.44273915    -0.20400
C1047       C  0.90690440  0.23332878  0.31287865    -0.20400
C1048       C  0.90669578  0.27320210  0.31298981    -0.20400
C1049       C  0.86264134  0.13160948  0.38635692    -0.21500
C1050       C  0.86692987  0.13190556  0.36468001    -0.21500
C1051       C  0.86406406  0.37207033  0.38727176    -0.21500
C1052       C  0.86812927  0.37264688  0.36557616    -0.21500
C1053       C  0.86850855  0.18088253  0.41466467    -0.16800
C1054       C  0.86885316  0.32139375  0.41523660    -0.16800
C1055       C  0.88455153  0.32360419  0.33842541    -0.16800
C1056       C  0.88497765  0.18173882  0.33797025    -0.16800
H1057       H  0.87988725  0.21195670  0.45641114     0.16100
H1058       H  0.87986862  0.28815685  0.45672565     0.16100
H1059       H  0.91831364  0.21539543  0.30027471     0.16100
H1060       H  0.91795598  0.29174144  0.30048871     0.16100
H1061       H  0.85649143  0.10637329  0.39603829     0.14300
H1062       H  0.86481179  0.10695818  0.35444477     0.14300
H1063       H  0.85906703  0.39705595  0.39716868     0.14300
H1064       H  0.86697486  0.39817941  0.35556220     0.14300
H1065       H  0.86062664  0.25157298  0.39318032     0.27600
H1066       H  0.86300015  0.25218854  0.35717990     0.27600
N1067       N  0.63128047  0.31199656  0.37808542    -0.35200
N1068       N  0.62743633  0.25316857  0.34493284    -0.55700
N1069       N  0.63210931  0.19406234  0.37792875    -0.35200
N1070       N  0.63784013  0.25270896  0.41064069    -0.56500
C1071       C  0.63683255  0.33378035  0.36037553     0.28400
C1072       C  0.64260283  0.33346376  0.39498973     0.28400
C1073       C  0.63660412  0.17250210  0.36018674     0.28400
C1074       C  0.64496475  0.17254363  0.39463687     0.28400
C1075       C  0.61829320  0.28486513  0.33317688     0.37000
C1076       C  0.61741057  0.22193571  0.33320845     0.37000
C1077       C  0.63459214  0.28370678  0.42345089     0.37000
C1078       C  0.63636367  0.22114758  0.42335083     0.37000
C1079       C  0.65165770  0.36956867  0.36607731    -0.20400
C1080       C  0.65538469  0.36934800  0.38789049    -0.20400
C1081       C  0.65230208  0.13685970  0.36566026    -0.20400
C1082       C  0.65778699  0.13694259  0.38735294    -0.20400
C1083       C  0.60298192  0.27370321  0.31367453    -0.21500
C1084       C  0.60235801  0.23385423  0.31371319    -0.21500
C1085       C  0.63079261  0.27179739  0.44446491    -0.21500
C1086       C  0.63199890  0.23210110  0.44440410    -0.21500
C1087       C  0.62545533  0.32351692  0.33950602    -0.16800
C1088       C  0.63985267  0.32227024  0.41667444    -0.16800
C1089       C  0.64299836  0.18305798  0.41636861    -0.16800
C1090       C  0.62398574  0.18301124  0.33949978    -0.16800
H1091       H  0.65859179  0.39356420  0.35561769     0.16100
H1092       H  0.66587299  0.39314606  0.39743729     0.16100
H1093       H  0.65878867  0.11309020  0.35512895     0.16100
H1094       H  0.66927851  0.11313580  0.39672095     0.16100
H1095       H  0.59346451  0.29230209  0.30073863     0.14300
H1096       H  0.59235615  0.21575034  0.30080338     0.14300
H1097       H  0.62877743  0.28983204  0.45843231     0.14300
H1098       H  0.63098548  0.21349871  0.45830491     0.14300
H1099       H  0.61620659  0.28601917  0.37874994     0.27600
H1100       H  0.61667056  0.21981632  0.37882347     0.27600
N1101       N  0.83154940  0.45572757  0.47503257    -0.04700
N1102       N  0.85577972  0.42650548  0.47162092    -0.56800
N1103       N  0.80296079  0.04419795  0.45979614    -0.04400
N1104       N  0.80669842  0.07293041  0.44612215    -0.58900
N1105       N  0.83124212  0.04503391  0.47409748    -0.03900
N1106       N  0.85494632  0.07455599  0.47044389    -0.56800
N1107       N  0.80307615  0.45573263  0.46083158    -0.03600
N1108       N  0.80712909  0.42676641  0.44754095    -0.59300
C1109       C  0.83981579  0.40877544  0.45449015     0.97500
C1110       C  0.83901533  0.09152154  0.45299628     0.97300
N1111       N  0.68407150  0.04581237  0.47497339    -0.04900
N1112       N  0.66059704  0.07574531  0.47162486    -0.57400
N1113       N  0.71163425  0.45563170  0.46150944    -0.03000
N1114       N  0.70710970  0.42626441  0.44850428    -0.58600
N1115       N  0.68392240  0.45581684  0.47605143    -0.04900
N1116       N  0.65970947  0.42636645  0.47312244    -0.57600
N1117       N  0.71143796  0.04458526  0.46026008    -0.02600
N1118       N  0.70726385  0.07339133  0.44662070    -0.58700
Mn1119     Mn  0.75712433  0.00001573  0.46011445     1.18400
C1120       C  0.67564433  0.09253424  0.45390743     0.99600
C1121       C  0.67491180  0.40820769  0.45595640     1.00300
N1122       N  0.83350056  0.04682042  0.52431967    -0.04900
N1123       N  0.85844399  0.07560010  0.52728085    -0.61200
N1124       N  0.80605470  0.45849258  0.54012325    -0.03700
N1125       N  0.81179003  0.43060156  0.55417205    -0.61900
N1126       N  0.83329782  0.45771404  0.52532434    -0.04400
N1127       N  0.85822909  0.42916524  0.52898757    -0.61500
N1128       N  0.80612607  0.04720171  0.53905107    -0.03300
N1129       N  0.81172295  0.07607639  0.55229893    -0.62200
Mn1130     Mn  0.83384615  0.00130735  0.49970829     1.10700
C1131       C  0.84420151  0.09355047  0.54471016     1.00800
C1132       C  0.84422144  0.41263901  0.54697135     1.00900
N1133       N  0.68567977  0.45783699  0.52638371    -0.04400
N1134       N  0.66187659  0.42841493  0.53019896    -0.59800
N1135       N  0.71430593  0.04767440  0.53952042    -0.03700
N1136       N  0.71063496  0.07713954  0.55253319    -0.56500
N1137       N  0.68579921  0.04762234  0.52532066    -0.05000
N1138       N  0.66195263  0.07723590  0.52848944    -0.59400
N1139       N  0.71405991  0.45868367  0.54064568    -0.04000
N1140       N  0.71028454  0.43008209  0.55441063    -0.56500
Mn1141     Mn  0.68306694  0.00190979  0.50077562     1.20200
Mn1142     Mn  0.76001728  0.00311953  0.54049322     1.10100
Cl1143     Cl  0.75850364  0.00158095  0.50029183    -0.84500
C1144       C  0.67785613  0.41152031  0.54768039     0.97800
C1145       C  0.67816725  0.09536446  0.54542083     0.97600
N1146       N  0.88668709  0.19170597  0.61992913    -0.35200
N1147       N  0.88451005  0.25204263  0.58757877    -0.55700
N1148       N  0.88512694  0.30899971  0.62156675    -0.35200
N1149       N  0.88957200  0.24850765  0.65354153    -0.55700
C1150       C  0.89229335  0.17084111  0.60205162     0.28400
C1151       C  0.89662639  0.16894364  0.63670180     0.28400
C1152       C  0.89085284  0.33170189  0.60425269     0.28400
C1153       C  0.89533195  0.32986053  0.63887262     0.28400
C1154       C  0.87591034  0.22142089  0.57518781     0.37000
C1155       C  0.87530501  0.28388083  0.57608386     0.37000
C1156       C  0.88620015  0.21650940  0.66577606     0.37000
C1157       C  0.88574415  0.27903416  0.66662151     0.37000
C1158       C  0.90594911  0.13436007  0.60748458    -0.20400
C1159       C  0.90885296  0.13319585  0.62932368    -0.20400
C1160       C  0.90462334  0.36752489  0.61058020    -0.20400
C1161       C  0.90766236  0.36631911  0.63241147    -0.20400
C1162       C  0.86222013  0.23385151  0.55549431    -0.21500
C1163       C  0.86183099  0.27351841  0.55606128    -0.21500
C1164       C  0.88019184  0.22672262  0.68682925    -0.21500
C1165       C  0.87992457  0.26642249  0.68736685    -0.21500
C1166       C  0.88158433  0.18252030  0.58124244    -0.16800
C1167       C  0.89237957  0.17856227  0.65846449    -0.16800
C1168       C  0.89148072  0.31777620  0.66034409    -0.16800
C1169       C  0.88054087  0.32208432  0.58316479    -0.16800
H1170       H  0.91242133  0.11076856  0.59682887     0.16100
H1171       H  0.91804699  0.10845425  0.63870120     0.16100
H1172       H  0.91131283  0.39213722  0.60051795     0.16100
H1173       H  0.91719933  0.38991583  0.64238922     0.16100
H1174       H  0.85348124  0.21621223  0.54212923     0.14300
H1175       H  0.85274992  0.29252216  0.54321112     0.14300
H1176       H  0.87736500  0.20760237  0.70043740     0.14300
H1177       H  0.87685984  0.28396630  0.70146626     0.14300
H1178       H  0.87190788  0.21786085  0.62071527     0.27600
H1179       H  0.87033585  0.28280159  0.62167567     0.27600
N1180       N  0.63525509  0.30946872  0.62388413    -0.35200
N1181       N  0.64270312  0.25173472  0.59082153    -0.55700
N1182       N  0.63158124  0.19156600  0.62265601    -0.35200
N1183       N  0.62767225  0.24929720  0.65618337    -0.55700
C1184       C  0.64767097  0.33180728  0.60749552     0.28400
C1185       C  0.63919832  0.33040647  0.64187025     0.28400
C1186       C  0.64283703  0.16988853  0.60587532     0.28400
C1187       C  0.63314486  0.16872222  0.64019988     0.28400
C1188       C  0.64183972  0.28359600  0.57831529     0.37000
C1189       C  0.64099928  0.22105160  0.57768229     0.37000
C1190       C  0.61884268  0.28031367  0.66818172     0.37000
C1191       C  0.61661229  0.21793251  0.66754920     0.37000
C1192       C  0.65951672  0.36747862  0.61519410    -0.20400
C1193       C  0.65405772  0.36661319  0.63687544    -0.20400
C1194       C  0.65119020  0.13264916  0.61286794    -0.20400
C1195       C  0.64493838  0.13189412  0.63448017    -0.20400
C1196       C  0.63979371  0.27312500  0.55707080    -0.21500
C1197       C  0.63937767  0.23346459  0.55666867    -0.21500
C1198       C  0.60293647  0.26860509  0.68746223    -0.21500
C1199       C  0.60155429  0.22901000  0.68706816    -0.21500
C1200       C  0.64647819  0.32171991  0.58570649    -0.16800
C1201       C  0.62646843  0.31891512  0.66231140    -0.16800
C1202       C  0.62156019  0.17942698  0.66093158    -0.16800
C1203       C  0.64396316  0.18213442  0.58431356    -0.16800
H1204       H  0.67045834  0.39184906  0.60611754     0.16100
H1205       H  0.65986694  0.39014467  0.64770240     0.16100
H1206       H  0.66039773  0.10832279  0.60336969     0.16100
H1207       H  0.64840238  0.10694464  0.64478714     0.16100
H1208       H  0.63955853  0.29205124  0.54328942     0.14300
H1209       H  0.63861643  0.21579393  0.54252156     0.14300
H1210       H  0.59344157  0.28667011  0.70047112     0.14300
H1211       H  0.59075742  0.21051196  0.69970945     0.14300
H1212       H  0.62024671  0.28352990  0.62257424     0.27600
H1213       H  0.61924273  0.21890073  0.62188387     0.27600
N1214       N  0.96151948  0.42807982  0.27449073    -0.04700
N1215       N  0.95568924  0.39884264  0.28758810    -0.56800
N1216       N  0.93050833  0.45908063  0.22836383    -0.04400
N1217       N  0.90132136  0.45379266  0.21489948    -0.58900
N1218       N  0.95796982  0.43273061  0.22585431    -0.03900
N1219       N  0.94707327  0.40815025  0.21078651    -0.56800
N1220       N  0.93449248  0.45489938  0.27695863    -0.03600
N1221       N  0.90885125  0.44344495  0.29159177    -0.59300
C1222       C  0.92315125  0.40868848  0.29826997     0.97500
C1223       C  0.91192745  0.42229453  0.20393052     0.97300
N1224       N  0.95876082  0.07312167  0.22525747    -0.04900
N1225       N  0.94817194  0.09715083  0.20972023    -0.57400
N1226       N  0.93468450  0.05164810  0.27643520    -0.03000
N1227       N  0.90909032  0.06309379  0.29102296    -0.58600
N1228       N  0.96167997  0.07849454  0.27374917    -0.04900
N1229       N  0.95583449  0.10773511  0.28665027    -0.57600
N1230       N  0.93141540  0.04667084  0.22796508    -0.02600
N1231       N  0.90271025  0.05119819  0.21416366    -0.58700
Mn1232     Mn  0.93201609  0.50320508  0.25315333     1.18400
C1233       C  0.91342674  0.08238590  0.20284394     0.99600
C1234       C  0.92333111  0.09787935  0.29742820     1.00300
N1235       N  0.55584486  0.43307039  0.22645224    -0.04900
N1236       N  0.56635155  0.40868285  0.21128453    -0.61200
N1237       N  0.57841000  0.45511358  0.27771501    -0.03700
N1238       N  0.60379655  0.44360254  0.29253717    -0.61900
N1239       N  0.55149469  0.42825319  0.27491538    -0.04400
N1240       N  0.55721211  0.39889952  0.28796858    -0.61500
N1241       N  0.58364438  0.45903464  0.22927476    -0.03300
N1242       N  0.61282456  0.45352457  0.21592870    -0.62200
Mn1243     Mn  0.50680334  0.42984654  0.24982101     1.10700
C1244       C  0.60169487  0.42239718  0.20473576     1.00800
C1245       C  0.58951593  0.40876725  0.29895651     1.00900
N1246       N  0.55135227  0.07860002  0.27438623    -0.04400
N1247       N  0.55636069  0.10773843  0.28747487    -0.59800
N1248       N  0.58388905  0.04726583  0.22885272    -0.03700
N1249       N  0.61302456  0.05203946  0.21536854    -0.56500
N1250       N  0.55637820  0.07347724  0.22577760    -0.05000
N1251       N  0.56711256  0.09739418  0.21022982    -0.59400
N1252       N  0.57840567  0.05188444  0.27740945    -0.04000
N1253       N  0.60325567  0.06337370  0.29245831    -0.56500
Mn1254     Mn  0.50702408  0.07669341  0.24917939     1.20200
Mn1255     Mn  0.58201498  0.50340755  0.25405757     1.10100
Cl1256     Cl  0.50704102  0.50332540  0.25164059    -0.84500
C1257       C  0.58845690  0.09802120  0.29875068     0.97800
C1258       C  0.60229340  0.08306665  0.20378727     0.97600
N1259       N  0.96116689  0.17670337  0.97252482    -0.04700
N1260       N  0.93202042  0.15257822  0.96849036    -0.56800
N1261       N  0.55173456  0.20521015  0.95893707    -0.04400
N1262       N  0.58059409  0.20084381  0.94522298    -0.58900
N1263       N  0.55186173  0.17700496  0.97307474    -0.03900
N1264       N  0.58091677  0.15268579  0.96919664    -0.56800
N1265       N  0.96159444  0.20490398  0.95837843    -0.03600
N1266       N  0.93293416  0.20069555  0.94445961    -0.59300
C1267       C  0.91472413  0.16823146  0.95104030     0.97500
C1268       C  0.59864499  0.16826192  0.95189948     0.97300
N1269       N  0.55122261  0.32239921  0.97490150    -0.04900
N1270       N  0.58056141  0.34680704  0.97162239    -0.57400
N1271       N  0.96133095  0.29533336  0.95955856    -0.03000
N1272       N  0.93291685  0.30105828  0.94563538    -0.58600
N1273       N  0.96073506  0.32209011  0.97434244    -0.04900
N1274       N  0.93178448  0.34672420  0.97075638    -0.57600
N1275       N  0.55109546  0.29555716  0.96014755    -0.02600
N1276       N  0.58007038  0.30094443  0.94662811    -0.58700
Mn1277     Mn  0.50643771  0.25027396  0.95872489     1.18400
C1278       C  0.59826008  0.33268288  0.95400987     0.99600
C1279       C  0.91473674  0.33288453  0.95290924     1.00300
N1280       N  0.55101813  0.17522476  0.02346533    -0.04900
N1281       N  0.58125263  0.15191012  0.02676588    -0.61200
N1282       N  0.95994286  0.20077575  0.03759707    -0.03700
N1283       N  0.93151169  0.19440364  0.05132720    -0.61900
N1284       N  0.96033545  0.17390085  0.02287431    -0.04400
N1285       N  0.93197269  0.14852734  0.02633435    -0.61500
N1286       N  0.54989480  0.20205321  0.03820417    -0.03300
N1287       N  0.57914249  0.19777028  0.05175091    -0.62200
Mn1288     Mn  0.50615354  0.17416719  0.99797952     1.10700
C1289       C  0.59842776  0.16668685  0.04439177     1.00800
C1290       C  0.91426023  0.16206792  0.04404051     1.00900
N1291       N  0.95898789  0.31986326  0.02469383    -0.04400
N1292       N  0.93003771  0.34429165  0.02867937    -0.59800
N1293       N  0.54894554  0.29210048  0.03962817    -0.03700
N1294       N  0.57742354  0.29641445  0.05365662    -0.56500
N1295       N  0.54965284  0.32014694  0.02540814    -0.05000
N1296       N  0.57874906  0.34429635  0.02949867    -0.59400
N1297       N  0.95885085  0.29143604  0.03870988    -0.04000
N1298       N  0.93002048  0.29576699  0.05243050    -0.56500
Mn1299     Mn  0.50518026  0.32260425  0.99986201     1.20200
Mn1300     Mn  0.50434966  0.24650571  0.03907619     1.10100
Cl1301     Cl  0.50546711  0.24839318  0.99890587    -0.84500
C1302       C  0.91218088  0.32853092  0.04591082     0.97800
C1303       C  0.59576385  0.32882849  0.04707642     0.97600
N1304       N  0.69573702  0.38228514  0.87684931    -0.35200
N1305       N  0.75510043  0.39048904  0.84367462    -0.55700
N1306       N  0.81651092  0.38515801  0.87604222    -0.35200
N1307       N  0.75699248  0.37299648  0.90880222    -0.55700
C1308       C  0.67266086  0.38089890  0.85927956     0.28400
C1309       C  0.67382604  0.37036575  0.89360779     0.28400
C1310       C  0.83839181  0.38275722  0.85815106     0.28400
C1311       C  0.83940850  0.37347224  0.89249630     0.28400
C1312       C  0.72280364  0.39897891  0.83195889     0.37000
C1313       C  0.78652650  0.39942566  0.83147936     0.37000
C1314       C  0.72561808  0.37181792  0.92189962     0.37000
C1315       C  0.78912917  0.37371050  0.92142445     0.37000
C1316       C  0.63540703  0.36855067  0.86499505    -0.20400
C1317       C  0.63616130  0.36180480  0.88659076    -0.20400
C1318       C  0.87591843  0.37025475  0.86336375    -0.20400
C1319       C  0.87656436  0.36437059  0.88500480    -0.20400
C1320       C  0.73382360  0.41288623  0.81209864    -0.21500
C1321       C  0.77414992  0.41312835  0.81179094    -0.21500
C1322       C  0.73791370  0.37144297  0.94296298    -0.21500
C1323       C  0.77814399  0.37269074  0.94266587    -0.21500
C1324       C  0.68358200  0.39241180  0.83844731    -0.16800
C1325       C  0.68619660  0.36848274  0.91516782    -0.16800
C1326       C  0.82817874  0.37163120  0.91414399    -0.16800
C1327       C  0.82614633  0.39335295  0.83741178    -0.16800
H1328       H  0.61016663  0.36494138  0.85469425     0.16100
H1329       H  0.61156860  0.35200179  0.89605374     0.16100
H1330       H  0.90035162  0.36578248  0.85268415     0.16100
H1331       H  0.90161681  0.35442493  0.89415223     0.16100
H1332       H  0.71480742  0.42163405  0.79910132     0.14300
H1333       H  0.79227056  0.42210211  0.79853026     0.14300
H1334       H  0.71982262  0.36981499  0.95707267     0.14300
H1335       H  0.79715037  0.37209005  0.95650649     0.14300
H1336       H  0.72340927  0.39453747  0.87765389     0.27600
H1337       H  0.78898162  0.39769422  0.87724029     0.27600
N1338       N  0.75592874  0.13081128  0.90614740    -0.35200
N1339       N  0.69563944  0.11603213  0.87468118    -0.55700
N1340       N  0.75610335  0.11073326  0.84162993    -0.35200
N1341       N  0.81651986  0.12100407  0.87373013    -0.55700
C1342       C  0.72430526  0.12737736  0.91899677     0.28400
C1343       C  0.78823570  0.12835379  0.91862758     0.28400
C1344       C  0.72428817  0.09845802  0.83064281     0.28400
C1345       C  0.78831832  0.10134177  0.83016417     0.28400
C1346       C  0.67216963  0.12563793  0.89116440     0.37000
C1347       C  0.67217894  0.11368450  0.85735096     0.37000
C1348       C  0.83942670  0.13184605  0.89024047     0.37000
C1349       C  0.83958465  0.12151785  0.85624633     0.37000
C1350       C  0.73661646  0.12303305  0.93992943    -0.20400
C1351       C  0.77699201  0.12351741  0.93969544    -0.20400
C1352       C  0.73638866  0.08170794  0.81174804    -0.20400
C1353       C  0.77674038  0.08350208  0.81145347    -0.20400
C1354       C  0.63353280  0.12847210  0.88436337    -0.21500
C1355       C  0.63351035  0.12075463  0.86298812    -0.21500
C1356       C  0.87735232  0.13889735  0.88322568    -0.21500
C1357       C  0.87745810  0.13227335  0.86171560    -0.21500
C1358       C  0.68473206  0.13017035  0.91245812    -0.16800
C1359       C  0.82737089  0.13316294  0.91173926    -0.16800
C1360       C  0.82773469  0.10960254  0.83575297    -0.16800
C1361       C  0.68461393  0.10351577  0.83669294    -0.16800
H1362       H  0.71838864  0.11996596  0.95392092     0.16100
H1363       H  0.79591993  0.12106740  0.95350985     0.16100
H1364       H  0.71804770  0.06944955  0.79941999     0.16100
H1365       H  0.79539810  0.07289598  0.79885768     0.16100
H1366       H  0.60792965  0.13501362  0.89383739     0.14300
H1367       H  0.60786586  0.12031170  0.85278051     0.14300
H1368       H  0.90252009  0.14735849  0.89265773     0.14300
H1369       H  0.90266474  0.13462890  0.85134392     0.14300
H1370       H  0.75545316  0.13921837  0.89027805     0.27600
H1371       H  0.75554221  0.12799272  0.85504815     0.27600
N1372       N  0.57832989  0.45307100  0.71957235    -0.04700
N1373       N  0.60297025  0.42406556  0.71675766    -0.56800
N1374       N  0.55035654  0.04159656  0.70387231    -0.04400
N1375       N  0.55435527  0.07065389  0.69041548    -0.58900
N1376       N  0.57794501  0.04240304  0.71854747    -0.03900
N1377       N  0.60152248  0.07220862  0.71534209    -0.56800
N1378       N  0.55067810  0.45271305  0.70493583    -0.03600
N1379       N  0.55570186  0.42350312  0.69188024    -0.59300
C1380       C  0.58815467  0.40590066  0.69953102     0.97500
C1381       C  0.58617046  0.08943573  0.69780362     0.97300
N1382       N  0.93156945  0.04225219  0.71789862    -0.04900
N1383       N  0.90734422  0.07143863  0.71415123    -0.57400
N1384       N  0.95932316  0.45260714  0.70463417    -0.03000
N1385       N  0.95511363  0.42319450  0.69164322    -0.58600
N1386       N  0.93149329  0.45268135  0.71908278    -0.04900
N1387       N  0.90752976  0.42307726  0.71618967    -0.57600
N1388       N  0.95918568  0.04125552  0.70334238    -0.02600
N1389       N  0.95454538  0.06952640  0.68942071    -0.58700
Mn1390     Mn  0.50478124  0.49691344  0.70360868     1.18400
C1391       C  0.92229032  0.08804437  0.69636359     0.99600
C1392       C  0.92297291  0.40502236  0.69908936     1.00300
N1393       N  0.57936987  0.04212218  0.76883052    -0.04900
N1394       N  0.60917639  0.06440586  0.77410861    -0.61200
N1395       N  0.55212148  0.45490201  0.78469820    -0.03700
N1396       N  0.56288669  0.43228819  0.80072091    -0.61900
N1397       N  0.57933852  0.45485449  0.76984597    -0.04400
N1398       N  0.60875526  0.43215362  0.77552014    -0.61500
N1399       N  0.55247562  0.04242535  0.78384054    -0.03300
N1400       N  0.56391836  0.06486585  0.79962196    -0.62200
Mn1401     Mn  0.57958468  0.49821365  0.74402930     1.10700
C1402       C  0.59904070  0.07890768  0.79319417     1.00800
C1403       C  0.59797465  0.41772961  0.79466223     1.00900
N1404       N  0.93031382  0.45515013  0.76933062    -0.04400
N1405       N  0.90099604  0.43220215  0.77463611    -0.59800
N1406       N  0.95776964  0.04278287  0.78354314    -0.03700
N1407       N  0.94709187  0.06612774  0.79905969    -0.56500
N1408       N  0.93067968  0.04247605  0.76851737    -0.05000
N1409       N  0.90141729  0.06562734  0.77359280    -0.59400
N1410       N  0.95725067  0.45523160  0.78441599    -0.04000
N1411       N  0.94632324  0.43242387  0.80027808    -0.56500
Mn1412     Mn  0.92991537  0.49829985  0.74355805     1.20200
Mn1413     Mn  0.50478436  0.49890593  0.78455282     1.10100
Cl1414     Cl  0.50476747  0.49809120  0.74405274    -0.84500
C1415       C  0.91146738  0.41771397  0.79382291     0.97800
C1416       C  0.91220903  0.08074516  0.79250061     0.97600
N1417       N  0.75714385  0.11892154  0.15512832    -0.35200
N1418       N  0.69700809  0.12551813  0.12225829    -0.55700
N1419       N  0.75759935  0.13104657  0.08990784    -0.35200
N1420       N  0.81769890  0.12123005  0.12230723    -0.55700
C1421       C  0.72481311  0.10965896  0.16664013     0.28400
C1422       C  0.78917456  0.10907927  0.16681604     0.28400
C1423       C  0.72538690  0.12718979  0.07750718     0.28400
C1424       C  0.78913975  0.12390116  0.07754567     0.28400
C1425       C  0.67392314  0.12786793  0.13967084     0.37000
C1426       C  0.67459793  0.13627010  0.10543749     0.37000
C1427       C  0.84095375  0.12320414  0.13971635     0.37000
C1428       C  0.84095900  0.12869354  0.10537752     0.37000
C1429       C  0.73654220  0.09432443  0.18611760    -0.20400
C1430       C  0.77706717  0.09405284  0.18624968    -0.20400
C1431       C  0.73656063  0.11775413  0.05697115    -0.20400
C1432       C  0.77687715  0.11564483  0.05700311    -0.20400
C1433       C  0.63656022  0.13988891  0.13386032    -0.21500
C1434       C  0.63704473  0.14545605  0.11220155    -0.21500
C1435       C  0.87928247  0.13134268  0.13377138    -0.21500
C1436       C  0.87925494  0.13492540  0.11203361    -0.21500
C1437       C  0.68519385  0.11648541  0.16045127    -0.16800
C1438       C  0.82890614  0.11476855  0.16070938    -0.16800
C1439       C  0.82861969  0.12769448  0.08392426    -0.16800
C1440       C  0.68652145  0.13458418  0.08393604    -0.16800
H1441       H  0.71787347  0.08468608  0.19900908     0.16100
H1442       H  0.79549615  0.08403827  0.19922376     0.16100
H1443       H  0.71764898  0.11326284  0.04333349     0.16100
H1444       H  0.79512755  0.10925216  0.04339776     0.16100
H1445       H  0.61145101  0.14384917  0.14413031     0.14300
H1446       H  0.61229102  0.15433908  0.10250146     0.14300
H1447       H  0.90475550  0.13396892  0.14400004     0.14300
H1448       H  0.90466553  0.14084990  0.10224806     0.14300
H1449       H  0.75748700  0.13456082  0.14100122     0.27600
H1450       H  0.75821165  0.14279902  0.10506790     0.27600
N1451       N  0.75562143  0.37887072  0.15734543    -0.35200
N1452       N  0.69487978  0.37275539  0.12448278    -0.55700
N1453       N  0.75513460  0.36452616  0.09222667    -0.35200
N1454       N  0.81582999  0.37331105  0.12448429    -0.55700
C1455       C  0.72349068  0.39020927  0.16839982     0.28400
C1456       C  0.78786079  0.39020991  0.16843728     0.28400
C1457       C  0.72304633  0.36793562  0.07962773     0.28400
C1458       C  0.78703474  0.36835969  0.07963195     0.28400
C1459       C  0.67163158  0.37276764  0.14187439     0.37000
C1460       C  0.67161203  0.36374229  0.10775942     0.37000
C1461       C  0.83912570  0.37227436  0.14194774     0.37000
C1462       C  0.83868133  0.36354319  0.10778391     0.37000
C1463       C  0.73552085  0.40807433  0.18702483    -0.20400
C1464       C  0.77600283  0.40808383  0.18704340    -0.20400
C1465       C  0.73467038  0.37398342  0.05872438    -0.20400
C1466       C  0.77507530  0.37429386  0.05873033    -0.20400
C1467       C  0.63329708  0.36410315  0.13613989    -0.21500
C1468       C  0.63330439  0.35824665  0.11456252    -0.21500
C1469       C  0.87703627  0.36212526  0.13629217    -0.21500
C1470       C  0.87672563  0.35644297  0.11468779    -0.21500
C1471       C  0.68366695  0.38409825  0.16244569    -0.16800
C1472       C  0.82761980  0.38390049  0.16252187    -0.16800
C1473       C  0.82641675  0.36343909  0.08624102    -0.16800
C1474       C  0.68378389  0.36295997  0.08627021    -0.16800
H1475       H  0.71705526  0.42009225  0.19931070     0.16100
H1476       H  0.79457877  0.42007849  0.19934498     0.16100
H1477       H  0.71598761  0.37722869  0.04485786     0.16100
H1478       H  0.79354576  0.37775253  0.04486011     0.16100
H1479       H  0.60781661  0.36284747  0.14636906     0.14300
H1480       H  0.60780180  0.35162753  0.10493855     0.14300
H1481       H  0.90242823  0.35964971  0.14660974     0.14300
H1482       H  0.90185945  0.34873505  0.10511524     0.14300
H1483       H  0.75555034  0.36144399  0.14395719     0.27600
H1484       H  0.75529046  0.35505706  0.10792057     0.27600
C1485       C  0.62861215  0.09039664  0.80817133    -0.11800
C1486       C  0.65440085  0.09686675  0.82083709    -0.13400
C1487       C  0.88344216  0.09476967  0.80732337    -0.11800
C1488       C  0.85816178  0.10289998  0.81999391    -0.13400
C1489       C  0.62688021  0.40502427  0.80996336    -0.11800
C1490       C  0.65245704  0.39802365  0.82280807    -0.13400
C1491       C  0.85640116  0.39852561  0.82140426    -0.11800
C1492       C  0.88218144  0.40514373  0.80875494    -0.13400
C1493       C  0.63113950  0.15010888  0.05552112    -0.11800
C1494       C  0.65714468  0.14105977  0.06759052    -0.13400
C1495       C  0.88330157  0.14309546  0.05538743    -0.11800
C1496       C  0.85794326  0.13311056  0.06754656    -0.13400
C1497       C  0.65417564  0.35550837  0.07018639    -0.11800
C1498       C  0.62805351  0.34552189  0.05846297    -0.13400
C1499       C  0.85581598  0.35628717  0.07003242    -0.11800
C1500       C  0.88111136  0.34623423  0.05783455    -0.13400
C1501       C  0.63066141  0.35019807  0.94301578    -0.11800
C1502       C  0.65664352  0.36022979  0.93118946    -0.13400
C1503       C  0.88383397  0.35160480  0.94141208    -0.11800
C1504       C  0.85835220  0.36296405  0.92966943    -0.13400
C1505       C  0.62992882  0.15043181  0.94019477    -0.11800
C1506       C  0.65536129  0.13921649  0.92839362    -0.13400
C1507       C  0.85702366  0.14110496  0.92767061    -0.11800
C1508       C  0.88286429  0.15126226  0.93949364    -0.13400
C1509       C  0.85885781  0.39292366  0.17770455    -0.11800
C1510       C  0.88495940  0.40348124  0.18949625    -0.13400
C1511       C  0.62767205  0.40394798  0.18983353    -0.11800
C1512       C  0.65292255  0.39325289  0.17769903    -0.13400
C1513       C  0.85984870  0.10884033  0.17636112    -0.11800
C1514       C  0.88648331  0.10041047  0.18824059    -0.13400
C1515       C  0.62834531  0.10025558  0.18827884    -0.11800
C1516       C  0.65395411  0.10934929  0.17585471    -0.13400
C1517       C  0.60270057  0.12221347  0.68710057    -0.11800
C1518       C  0.61295492  0.14880496  0.67599672    -0.13400
C1519       C  0.61822991  0.34887716  0.67759155    -0.11800
C1520       C  0.60681495  0.37458899  0.68878638    -0.13400
C1521       C  0.90622830  0.12112728  0.68554504    -0.11800
C1522       C  0.89773886  0.14798759  0.67410321    -0.13400
C1523       C  0.89708558  0.34652886  0.67673555    -0.11800
C1524       C  0.90604902  0.37246072  0.68849490    -0.13400
C1525       C  0.86219222  0.12598490  0.55502127    -0.11800
C1526       C  0.87324422  0.15246531  0.56589925    -0.13400
C1527       C  0.86177361  0.38033474  0.55769451    -0.11800
C1528       C  0.87258516  0.35347190  0.56847126    -0.13400
C1529       C  0.66116791  0.12743903  0.55647388    -0.11800
C1530       C  0.65141852  0.15309187  0.56825213    -0.13400
C1531       C  0.65326465  0.35208812  0.57017951    -0.11800
C1532       C  0.66208638  0.37866510  0.55868360    -0.13400
C1533       C  0.60703064  0.12533623  0.31293385    -0.11800
C1534       C  0.61658116  0.15177548  0.32445161    -0.13400
C1535       C  0.61874219  0.35495547  0.32438075    -0.11800
C1536       C  0.60891895  0.38147438  0.31288090    -0.13400
C1537       C  0.65073151  0.15316891  0.43217152    -0.11800
C1538       C  0.66004256  0.12625406  0.44342057    -0.13400
C1539       C  0.64687269  0.35146169  0.43275870    -0.11800
C1540       C  0.65685772  0.37675921  0.44475991    -0.13400
C1541       C  0.89349315  0.15126646  0.32265386    -0.11800
C1542       C  0.90389334  0.12509486  0.31122089    -0.13400
C1543       C  0.89297025  0.35466000  0.32325511    -0.11800
C1544       C  0.90342933  0.38120892  0.31193846    -0.13400
C1545       C  0.86311257  0.15114718  0.43068138    -0.11800
C1546       C  0.85465975  0.12459238  0.44223406    -0.13400
C1547       C  0.86437002  0.35051625  0.43156272    -0.11800
C1548       C  0.85631600  0.37642559  0.44352165    -0.13400
N1549       N  0.86858483  0.75146518  0.40903562    -0.35200
N1550       N  0.87561757  0.69267717  0.37619444    -0.55700
N1551       N  0.87892723  0.75267407  0.34323665    -0.35200
N1552       N  0.87552076  0.81145942  0.37663970    -0.55700
C1553       C  0.87230097  0.71969661  0.42148823     0.28400
C1554       C  0.87236071  0.78261260  0.42174870     0.28400
C1555       C  0.88965899  0.72119586  0.33182009     0.28400
C1556       C  0.88966225  0.78462239  0.33202651     0.28400
C1557       C  0.86780626  0.66954067  0.39309349     0.37000
C1558       C  0.87423480  0.66997102  0.35876659     0.37000
C1559       C  0.86854922  0.83409084  0.39371444     0.37000
C1560       C  0.87492132  0.83495780  0.35936057     0.37000
C1561       C  0.87802468  0.73076020  0.44246602    -0.20400
C1562       C  0.87803613  0.77048393  0.44263113    -0.20400
C1563       C  0.90637525  0.73336707  0.31281884    -0.20400
C1564       C  0.90636251  0.77324448  0.31294228    -0.20400
C1565       C  0.86167873  0.63194384  0.38634327    -0.21500
C1566       C  0.86581602  0.63221038  0.36465439    -0.21500
C1567       C  0.86372569  0.87215689  0.38722438    -0.21500
C1568       C  0.86786040  0.87272467  0.36553294    -0.21500
C1569       C  0.86829819  0.68113007  0.41464917    -0.16800
C1570       C  0.86884091  0.82156927  0.41521153    -0.16800
C1571       C  0.88439630  0.82370753  0.33839134    -0.16800
C1572       C  0.88424596  0.68186048  0.33792094    -0.16800
H1573       H  0.88146574  0.71215520  0.45626140     0.16100
H1574       H  0.88153076  0.78838282  0.45657533     0.16100
H1575       H  0.91779656  0.71539080  0.30023655     0.16100
H1576       H  0.91781149  0.79174559  0.30047445     0.16100
H1577       H  0.85553636  0.60673381  0.39604621     0.14300
H1578       H  0.86355322  0.60726319  0.35442819     0.14300
H1579       H  0.85858250  0.89712789  0.39711034     0.14300
H1580       H  0.86658304  0.89823304  0.35550462     0.14300
H1581       H  0.85963901  0.75181340  0.39326642     0.27600
H1582       H  0.86240023  0.75241355  0.35709018     0.27600
N1583       N  0.63105480  0.81213014  0.37821159    -0.35200
N1584       N  0.62735480  0.75334384  0.34505824    -0.55700
N1585       N  0.63311140  0.69439396  0.37796080    -0.35200
N1586       N  0.63797427  0.75293503  0.41068302    -0.56500
C1587       C  0.63714044  0.83365066  0.36046214     0.28400
C1588       C  0.64314324  0.83333918  0.39505968     0.28400
C1589       C  0.63789036  0.67295158  0.36020365     0.28400
C1590       C  0.64627635  0.67305513  0.39465960     0.28400
C1591       C  0.61750307  0.78499979  0.33344372     0.37000
C1592       C  0.61723607  0.72204795  0.33340978     0.37000
C1593       C  0.63393981  0.78388807  0.42345456     0.37000
C1594       C  0.63611101  0.72133483  0.42333951     0.37000
C1595       C  0.65322011  0.86896287  0.36606327    -0.20400
C1596       C  0.65712374  0.86873230  0.38788322    -0.20400
C1597       C  0.65428545  0.63758740  0.36564038    -0.20400
C1598       C  0.65978886  0.63771396  0.38734689    -0.20400
C1599       C  0.60152802  0.77377158  0.31410992    -0.21500
C1600       C  0.60131383  0.73389420  0.31410295    -0.21500
C1601       C  0.62912962  0.77192439  0.44439305    -0.21500
C1602       C  0.63058754  0.73221081  0.44432430    -0.21500
C1603       C  0.62503328  0.82362630  0.33968569    -0.16800
C1604       C  0.63977357  0.82239444  0.41674825    -0.16800
C1605       C  0.64360994  0.68336946  0.41640148    -0.16800
C1606       C  0.62455776  0.68318662  0.33960352    -0.16800
H1607       H  0.66085014  0.89264730  0.35553284     0.16100
H1608       H  0.66846585  0.89220926  0.39738781     0.16100
H1609       H  0.66104995  0.61391976  0.35509126     0.16100
H1610       H  0.67157509  0.61404758  0.39671547     0.16100
H1611       H  0.59142694  0.79234051  0.30129144     0.14300
H1612       H  0.59106603  0.71573349  0.30127421     0.14300
H1613       H  0.62638178  0.78993823  0.45833072     0.14300
H1614       H  0.62904748  0.71355938  0.45818930     0.14300
H1615       H  0.61509989  0.78663090  0.37894351     0.27600
H1616       H  0.61709132  0.71987849  0.37889153     0.27600
N1617       N  0.83132001  0.95569182  0.47514092    -0.04700
N1618       N  0.85553133  0.92646278  0.47170621    -0.56800
N1619       N  0.80307542  0.54429227  0.45976011    -0.04400
N1620       N  0.80665715  0.57320924  0.44618980    -0.58900
N1621       N  0.83133495  0.54512699  0.47407238    -0.03900
N1622       N  0.85487457  0.57482676  0.47052352    -0.56800
N1623       N  0.80283217  0.95572064  0.46094892    -0.03600
N1624       N  0.80685655  0.92677322  0.44764306    -0.59300
C1625       C  0.83953588  0.90875131  0.45457600     0.97500
C1626       C  0.83885634  0.59191747  0.45313171     0.97300
N1627       N  0.68421481  0.54571323  0.47486289    -0.04900
N1628       N  0.66090604  0.57581587  0.47160911    -0.57400
N1629       N  0.71145489  0.95569057  0.46169409    -0.03000
N1630       N  0.70696237  0.92626885  0.44872488    -0.58600
N1631       N  0.68371863  0.95595281  0.47622046    -0.04900
N1632       N  0.65950367  0.92648648  0.47330362    -0.57600
N1633       N  0.71164107  0.54457784  0.46017999    -0.02600
N1634       N  0.70768279  0.57361108  0.44666690    -0.58700
Mn1635     Mn  0.75731297  0.50000490  0.45999777     1.18400
C1636       C  0.67612408  0.59280661  0.45398644     0.99600
C1637       C  0.67474610  0.90824120  0.45616590     1.00300
N1638       N  0.83349920  0.54666416  0.52425842    -0.04900
N1639       N  0.85849098  0.57536728  0.52728811    -0.61200
N1640       N  0.80600077  0.95865406  0.54025326    -0.03700
N1641       N  0.81166684  0.93069474  0.55427309    -0.61900
N1642       N  0.83318831  0.95779554  0.52542713    -0.04400
N1643       N  0.85799481  0.92911556  0.52903418    -0.61500
N1644       N  0.80610409  0.54698469  0.53897637    -0.03300
N1645       N  0.81173902  0.57574378  0.55229280    -0.62200
Mn1646     Mn  0.83395610  0.50127303  0.49962725     1.10700
C1647       C  0.84425825  0.59320422  0.54474853     1.00800
C1648       C  0.84399636  0.91260741  0.54702580     1.00900
N1649       N  0.68560661  0.95817018  0.52649438    -0.04400
N1650       N  0.66189789  0.92864263  0.53019450    -0.59800
N1651       N  0.71431875  0.54736802  0.53935788    -0.03700
N1652       N  0.71064535  0.57687883  0.55232993    -0.56500
N1653       N  0.68583138  0.54727331  0.52515106    -0.05000
N1654       N  0.66198977  0.57689684  0.52826349    -0.59400
N1655       N  0.71400587  0.95893584  0.54074532    -0.04000
N1656       N  0.71033659  0.93014567  0.55439626    -0.56500
Mn1657     Mn  0.68317463  0.50164786  0.50062678     1.20200
Mn1658     Mn  0.76003990  0.50288190  0.54036835     1.10100
Cl1659     Cl  0.75860858  0.50141259  0.50017339    -0.84500
C1660       C  0.67794724  0.91159302  0.54759992     0.97800
C1661       C  0.67819396  0.59506629  0.54517569     0.97600
N1662       N  0.88660961  0.69147675  0.61989472    -0.35200
N1663       N  0.88409436  0.75161785  0.58748799    -0.55700
N1664       N  0.88484634  0.80861151  0.62138687    -0.35200
N1665       N  0.88934520  0.74830328  0.65340973    -0.55700
C1666       C  0.89275777  0.67070851  0.60204053     0.28400
C1667       C  0.89689080  0.66891669  0.63668421     0.28400
C1668       C  0.89072969  0.83113682  0.60401601     0.28400
C1669       C  0.89563864  0.82939772  0.63862325     0.28400
C1670       C  0.87554955  0.72090664  0.57516702     0.37000
C1671       C  0.87460573  0.78335060  0.57598163     0.37000
C1672       C  0.88556041  0.71636545  0.66564990     0.37000
C1673       C  0.88542417  0.77889274  0.66643074     0.37000
C1674       C  0.90719128  0.63453252  0.60749720    -0.20400
C1675       C  0.90996979  0.63343651  0.62934421    -0.20400
C1676       C  0.90521777  0.86674344  0.61023024    -0.20400
C1677       C  0.90854796  0.86559097  0.63205460    -0.20400
C1678       C  0.86155315  0.73316492  0.55550236    -0.21500
C1679       C  0.86094886  0.77284332  0.55601852    -0.21500
C1680       C  0.87909380  0.72667007  0.68664770    -0.21500
C1681       C  0.87905928  0.76638889  0.68714690    -0.21500
C1682       C  0.88171715  0.68211397  0.58124964    -0.16800
C1683       C  0.89209236  0.67844068  0.65841398    -0.16800
C1684       C  0.89171252  0.81753131  0.66012898    -0.16800
C1685       C  0.87998769  0.82156560  0.58298663    -0.16800
H1686       H  0.91421790  0.61108130  0.59685089     0.16100
H1687       H  0.91962459  0.60890143  0.63875108     0.16100
H1688       H  0.91222600  0.89116911  0.60009524     0.16100
H1689       H  0.91864504  0.88905979  0.64196244     0.16100
H1690       H  0.85282997  0.71541036  0.54218030     0.14300
H1691       H  0.85169615  0.79175701  0.54316414     0.14300
H1692       H  0.87592310  0.70759794  0.70025335     0.14300
H1693       H  0.87582709  0.78400876  0.70120573     0.14300
H1694       H  0.87121029  0.71730447  0.62065296     0.27600
H1695       H  0.86961062  0.78264685  0.62158479     0.27600
N1696       N  0.63510632  0.80930700  0.62355010    -0.35200
N1697       N  0.64330320  0.75153130  0.59049396    -0.55700
N1698       N  0.63162306  0.69132272  0.62231308    -0.35200
N1699       N  0.62701441  0.74910211  0.65581487    -0.55700
C1700       C  0.64738028  0.83176439  0.60718237     0.28400
C1701       C  0.63842844  0.83037629  0.64152648     0.28400
C1702       C  0.64253829  0.66951853  0.60552180     0.28400
C1703       C  0.63235448  0.66833558  0.63981372     0.28400
C1704       C  0.64281783  0.78338284  0.57797864     0.37000
C1705       C  0.64204749  0.72084808  0.57734380     0.37000
C1706       C  0.61819805  0.78011559  0.66782345     0.37000
C1707       C  0.61602161  0.71770997  0.66718116     0.37000
C1708       C  0.65845873  0.86767721  0.61487758    -0.20400
C1709       C  0.65271870  0.86681241  0.63653261    -0.20400
C1710       C  0.64980904  0.63202157  0.61245576    -0.20400
C1711       C  0.64326030  0.63126131  0.63404058    -0.20400
C1712       C  0.64158346  0.77290495  0.55671603    -0.21500
C1713       C  0.64121638  0.73325640  0.55631357    -0.21500
C1714       C  0.60235241  0.76837402  0.68711173    -0.21500
C1715       C  0.60100290  0.72878129  0.68671185    -0.21500
C1716       C  0.64679489  0.82155595  0.58540254    -0.16800
C1717       C  0.62572245  0.81875817  0.66196214    -0.16800
C1718       C  0.62086062  0.67917376  0.66055356    -0.16800
C1719       C  0.64432530  0.68189232  0.58399193    -0.16800
H1720       H  0.66908810  0.89220100  0.60581610     0.16100
H1721       H  0.65795732  0.89050372  0.64733755     0.16100
H1722       H  0.65846627  0.60752907  0.60293432     0.16100
H1723       H  0.64590218  0.60613282  0.64428492     0.16100
H1724       H  0.64174407  0.79182075  0.54293021     0.14300
H1725       H  0.64088162  0.71559318  0.54215885     0.14300
H1726       H  0.59285640  0.78641751  0.70012924     0.14300
H1727       H  0.59022393  0.71028082  0.69935655     0.14300
H1728       H  0.62057004  0.78312044  0.62220216     0.27600
H1729       H  0.62006405  0.71897411  0.62155249     0.27600
N1730       N  0.96145736  0.92802660  0.27442805    -0.04700
N1731       N  0.95556499  0.89878084  0.28750813    -0.56800
N1732       N  0.93040054  0.95890119  0.22831817    -0.04400
N1733       N  0.90116308  0.95353270  0.21489408    -0.58900
N1734       N  0.95785753  0.93254669  0.22581817    -0.03900
N1735       N  0.94691196  0.90787571  0.21080677    -0.56800
N1736       N  0.93446482  0.95487889  0.27690082    -0.03600
N1737       N  0.90879779  0.94345859  0.29152475    -0.59300
C1738       C  0.92304190  0.90867685  0.29818939     0.97500
C1739       C  0.91173770  0.92197007  0.20396983     0.97300
N1740       N  0.95879651  0.57335788  0.22535375    -0.04900
N1741       N  0.94821004  0.59748975  0.20985521    -0.57400
N1742       N  0.93471250  0.55167805  0.27656513    -0.03000
N1743       N  0.90913317  0.56304882  0.29118014    -0.58600
N1744       N  0.96167409  0.57856065  0.27388956    -0.04900
N1745       N  0.95580595  0.60775685  0.28682320    -0.57600
N1746       N  0.93139934  0.54694235  0.22804188    -0.02600
N1747       N  0.90264949  0.55163148  0.21426712    -0.58700
Mn1748     Mn  0.93197993  0.00309032  0.25307950     1.18400
C1749       C  0.91338824  0.58287291  0.20297947     0.99600
C1750       C  0.92333185  0.59783485  0.29761735     1.00300
N1751       N  0.55559358  0.93295709  0.22634054    -0.04900
N1752       N  0.56608026  0.90864189  0.21113114    -0.61200
N1753       N  0.57822113  0.95501063  0.27762349    -0.03700
N1754       N  0.60354210  0.94357471  0.29249878    -0.61900
N1755       N  0.55132660  0.92813018  0.27482298    -0.04400
N1756       N  0.55700452  0.89882646  0.28791678    -0.61500
N1757       N  0.58336691  0.95894681  0.22915614    -0.03300
N1758       N  0.61248716  0.95355058  0.21576262    -0.62200
Mn1759     Mn  0.50659207  0.92971769  0.24974569     1.10700
C1760       C  0.60137220  0.92245102  0.20455042     1.00800
C1761       C  0.58925288  0.90875011  0.29893948     1.00900
N1762       N  0.55148266  0.57869468  0.27457734    -0.04400
N1763       N  0.55639026  0.60772006  0.28776136    -0.59800
N1764       N  0.58410585  0.54745717  0.22896026    -0.03700
N1765       N  0.61320754  0.55220231  0.21544335    -0.56500
N1766       N  0.55659990  0.57368550  0.22589830    -0.05000
N1767       N  0.56731726  0.59757490  0.21032687    -0.59400
N1768       N  0.57852419  0.55196423  0.27759054    -0.04000
N1769       N  0.60325272  0.56333511  0.29273021    -0.56500
Mn1770     Mn  0.50718382  0.57686069  0.24931685     1.20200
Mn1771     Mn  0.58181371  0.00327237  0.25394030     1.10100
Cl1772     Cl  0.50685789  0.00318830  0.25155478    -0.84500
C1773       C  0.58841211  0.59793048  0.29909155     0.97800
C1774       C  0.60248545  0.58323353  0.20385453     0.97600
N1775       N  0.96138353  0.67751463  0.97240045    -0.04700
N1776       N  0.93222704  0.65345261  0.96828717    -0.56800
N1777       N  0.55174049  0.70590321  0.95890743    -0.04400
N1778       N  0.58061227  0.70153671  0.94520302    -0.58900
N1779       N  0.55179081  0.67763465  0.97300982    -0.03900
N1780       N  0.58080733  0.65328356  0.96912231    -0.56800
N1781       N  0.96187051  0.70580683  0.95831416    -0.03600
N1782       N  0.93325833  0.70174206  0.94436129    -0.59300
C1783       C  0.91500567  0.66926321  0.95085830     0.97500
C1784       C  0.59858531  0.66890041  0.95185580     0.97300
N1785       N  0.55142320  0.82305173  0.97491275    -0.04900
N1786       N  0.58081077  0.84740427  0.97158828    -0.57400
N1787       N  0.96147116  0.79613130  0.95960928    -0.03000
N1788       N  0.93308874  0.80185796  0.94566812    -0.58600
N1789       N  0.96081304  0.82284878  0.97441203    -0.04900
N1790       N  0.93184254  0.84747634  0.97080954    -0.57600
N1791       N  0.55121391  0.79621576  0.96015856    -0.02600
N1792       N  0.58012643  0.80154030  0.94659844    -0.58700
Mn1793     Mn  0.50653550  0.75107115  0.95872402     1.18400
C1794       C  0.59840997  0.83323951  0.95394239     0.99600
C1795       C  0.91485076  0.83365747  0.95292935     1.00300
N1796       N  0.55093767  0.67545567  0.02338060    -0.04900
N1797       N  0.58115327  0.65207843  0.02662242    -0.61200
N1798       N  0.95997322  0.70128827  0.03749652    -0.03700
N1799       N  0.93118439  0.69521624  0.05105211    -0.61900
N1800       N  0.96029164  0.67449562  0.02273132    -0.04400
N1801       N  0.93154420  0.64945375  0.02600521    -0.61500
N1802       N  0.54991346  0.70221796  0.03815538    -0.03300
N1803       N  0.57920331  0.69781207  0.05167452    -0.62200
Mn1804     Mn  0.50603929  0.67472347  0.99787413     1.10700
C1805       C  0.59843190  0.66672529  0.04425768     1.00800
C1806       C  0.91363361  0.66313091  0.04362935     1.00900
N1807       N  0.95916420  0.82023300  0.02480346    -0.04400
N1808       N  0.93001719  0.84444054  0.02878528    -0.59800
N1809       N  0.54914977  0.79235884  0.03962364    -0.03700
N1810       N  0.57765293  0.79665228  0.05364368    -0.56500
N1811       N  0.54980675  0.82048286  0.02544209    -0.05000
N1812       N  0.57887617  0.84464392  0.02954982    -0.59400
N1813       N  0.95913908  0.79173948  0.03877942    -0.04000
N1814       N  0.93019431  0.79578748  0.05245369    -0.56500
Mn1815     Mn  0.50531792  0.82318061  0.99991627     1.20200
Mn1816     Mn  0.50444483  0.74679614  0.03905227     1.10100
Cl1817     Cl  0.50555913  0.74895438  0.99889204    -0.84500
C1818       C  0.91216916  0.82846179  0.04596341     0.97800
C1819       C  0.59594446  0.82912130  0.04709062     0.97600
N1820       N  0.69596472  0.88194912  0.87660325    -0.35200
N1821       N  0.75523415  0.89069715  0.84351273    -0.55700
N1822       N  0.81654688  0.88501480  0.87585293    -0.35200
N1823       N  0.75713490  0.87283602  0.90853868    -0.55700
C1824       C  0.67310080  0.87996597  0.85897426     0.28400
C1825       C  0.67424472  0.86938831  0.89329165     0.28400
C1826       C  0.83825463  0.88225459  0.85792417     0.28400
C1827       C  0.83929248  0.87278031  0.89224678     0.28400
C1828       C  0.72293503  0.89983297  0.83195631     0.37000
C1829       C  0.78664012  0.90051905  0.83151758     0.37000
C1830       C  0.72572707  0.87240428  0.92162274     0.37000
C1831       C  0.78923440  0.87441471  0.92116549     0.37000
C1832       C  0.63619965  0.86644966  0.86456198    -0.20400
C1833       C  0.63694423  0.85967626  0.88616567    -0.20400
C1834       C  0.87548411  0.86877719  0.86302849    -0.20400
C1835       C  0.87613726  0.86275870  0.88467090    -0.20400
C1836       C  0.73391744  0.91516124  0.81240578    -0.21500
C1837       C  0.77426427  0.91556003  0.81212353    -0.21500
C1838       C  0.73795609  0.87339751  0.94268365    -0.21500
C1839       C  0.77820094  0.87472840  0.94239594    -0.21500
C1840       C  0.68380867  0.89231272  0.83826255    -0.16800
C1841       C  0.68638679  0.86832466  0.91489608    -0.16800
C1842       C  0.82825849  0.87170747  0.91392854    -0.16800
C1843       C  0.82619368  0.89374925  0.83730897    -0.16800
H1844       H  0.61117145  0.86221301  0.85418346     0.16100
H1845       H  0.61256248  0.84920211  0.89557361     0.16100
H1846       H  0.89974375  0.86389585  0.85228784     0.16100
H1847       H  0.90101425  0.85227128  0.89377672     0.16100
H1848       H  0.71486638  0.92468861  0.79958885     0.14300
H1849       H  0.79239817  0.92544882  0.79906404     0.14300
H1850       H  0.71981210  0.87258761  0.95679122     0.14300
H1851       H  0.79718987  0.87502240  0.95624258     0.14300
H1852       H  0.72317907  0.89520823  0.87751817     0.27600
H1853       H  0.78938249  0.89833830  0.87712937     0.27600
N1854       N  0.75601914  0.63146622  0.90614169    -0.35200
N1855       N  0.69544793  0.61583064  0.87476621    -0.55700
N1856       N  0.75585036  0.61026539  0.84164182    -0.35200
N1857       N  0.81658835  0.62084038  0.87368735    -0.55700
C1858       C  0.72441611  0.62910090  0.91907431     0.28400
C1859       C  0.78836741  0.63032073  0.91864260     0.28400
C1860       C  0.72388962  0.59916866  0.83039748     0.28400
C1861       C  0.78797622  0.60190450  0.82986599     0.28400
C1862       C  0.67200893  0.62507667  0.89132656     0.37000
C1863       C  0.67182477  0.61281080  0.85752741     0.37000
C1864       C  0.83972681  0.63134119  0.89017655     0.37000
C1865       C  0.83971845  0.62039355  0.85622887     0.37000
C1866       C  0.73680328  0.62694080  0.94009533    -0.20400
C1867       C  0.77715698  0.62759665  0.93982623    -0.20400
C1868       C  0.73581998  0.58428004  0.81099481    -0.20400
C1869       C  0.77617534  0.58598058  0.81066696    -0.20400
C1870       C  0.63321616  0.62688751  0.88467857    -0.21500
C1871       C  0.63307472  0.61897820  0.86332876    -0.21500
C1872       C  0.87789632  0.63705670  0.88318705    -0.21500
C1873       C  0.87789708  0.63004657  0.86172518    -0.21500
C1874       C  0.68475267  0.63072694  0.91252092    -0.16800
C1875       C  0.82756667  0.63407099  0.91162576    -0.16800
C1876       C  0.82753077  0.60930180  0.83562700    -0.16800
C1877       C  0.68422786  0.60350177  0.83671319    -0.16800
H1878       H  0.71864630  0.62515960  0.95417686     0.16100
H1879       H  0.79608490  0.62656419  0.95369022     0.16100
H1880       H  0.71737255  0.57333431  0.79833755     0.16100
H1881       H  0.79468226  0.57661090  0.79771071     0.16100
H1882       H  0.60760290  0.63308180  0.89421645     0.14300
H1883       H  0.60730877  0.61802320  0.85322452     0.14300
H1884       H  0.90325332  0.64507788  0.89258883     0.14300
H1885       H  0.90320338  0.63164303  0.85138366     0.14300
H1886       H  0.75549300  0.63817239  0.89006351     0.27600
H1887       H  0.75544968  0.62603894  0.85556759     0.27600
N1888       N  0.57843761  0.95298499  0.71945568    -0.04700
N1889       N  0.60293696  0.92387062  0.71659177    -0.56800
N1890       N  0.55003209  0.54149588  0.70385314    -0.04400
N1891       N  0.55385945  0.57053819  0.69037362    -0.58900
N1892       N  0.57763981  0.54246462  0.71851485    -0.03900
N1893       N  0.60108367  0.57236056  0.71525939    -0.56800
N1894       N  0.55081480  0.95283826  0.70480338    -0.03600
N1895       N  0.55569467  0.92368651  0.69169707    -0.59300
C1896       C  0.58804621  0.90588482  0.69931803     0.97500
C1897       C  0.58560332  0.58948003  0.69771757     0.97300
N1898       N  0.93133613  0.54226718  0.71788779    -0.04900
N1899       N  0.90704913  0.57137453  0.71408732    -0.57400
N1900       N  0.95968286  0.95260908  0.70450129    -0.03000
N1901       N  0.95566439  0.92316445  0.69150896    -0.58600
N1902       N  0.93184461  0.95253196  0.71894371    -0.04900
N1903       N  0.90805639  0.92278252  0.71603308    -0.57600
N1904       N  0.95892009  0.54118559  0.70331575    -0.02600
N1905       N  0.95419021  0.56933655  0.68932575    -0.58700
Mn1906     Mn  0.50502697  0.99707385  0.70354847     1.18400
C1907       C  0.92191055  0.58785187  0.69624865     0.99600
C1908       C  0.92361888  0.90479738  0.69893231     1.00300
N1909       N  0.57912806  0.54234355  0.76882589    -0.04900
N1910       N  0.60885580  0.56474816  0.77408274    -0.61200
N1911       N  0.55226490  0.95473724  0.78463147    -0.03700
N1912       N  0.56302377  0.93208529  0.80064006    -0.61900
N1913       N  0.57943450  0.95463170  0.76975663    -0.04400
N1914       N  0.60880885  0.93185550  0.77539730    -0.61500
N1915       N  0.55223960  0.54260187  0.78383691    -0.03300
N1916       N  0.56357991  0.56515755  0.79958537    -0.62200
Mn1917     Mn  0.57976023  0.99805229  0.74398947     1.10700
C1918       C  0.59865476  0.57929221  0.79315205     1.00800
C1919       C  0.59805905  0.91744603  0.79454612     1.00900
N1920       N  0.93069976  0.95488034  0.76921260    -0.04400
N1921       N  0.90133281  0.93202576  0.77454515    -0.59800
N1922       N  0.95759297  0.54306723  0.78351947    -0.03700
N1923       N  0.94696717  0.56657198  0.79897195    -0.56500
N1924       N  0.93058656  0.54282381  0.76845589    -0.05000
N1925       N  0.90145487  0.56619679  0.77342512    -0.59400
N1926       N  0.95760050  0.95501965  0.78431826    -0.04000
N1927       N  0.94658824  0.93235071  0.80021935    -0.56500
Mn1928     Mn  0.93016981  0.99810139  0.74350127     1.20200
Mn1929     Mn  0.50495191  0.99877038  0.78449708     1.10100
Cl1930     Cl  0.50494641  0.99806585  0.74399579    -0.84500
C1931       C  0.91171815  0.91767358  0.79377248     0.97800
C1932       C  0.91219260  0.58133777  0.79233223     0.97600
N1933       N  0.75729042  0.61952243  0.15503154    -0.35200
N1934       N  0.69695980  0.62497687  0.12213843    -0.55700
N1935       N  0.75746306  0.62956543  0.08974733    -0.35200
N1936       N  0.81781524  0.62110202  0.12212974    -0.55700
C1937       C  0.72499825  0.60983515  0.16649055     0.28400
C1938       C  0.78938340  0.60941219  0.16662270     0.28400
C1939       C  0.72524194  0.62588649  0.07732845     0.28400
C1940       C  0.78906446  0.62293250  0.07734066     0.28400
C1941       C  0.67398997  0.62781938  0.13957437     0.37000
C1942       C  0.67449672  0.63542027  0.10527310     0.37000
C1943       C  0.84101703  0.62383185  0.13953462     0.37000
C1944       C  0.84091058  0.62873392  0.10514668     0.37000
C1945       C  0.73681607  0.59396287  0.18581800    -0.20400
C1946       C  0.77734409  0.59378510  0.18592266    -0.20400
C1947       C  0.73646664  0.61684548  0.05674314    -0.20400
C1948       C  0.77681393  0.61494898  0.05675726    -0.20400
C1949       C  0.63663352  0.63982278  0.13374309    -0.21500
C1950       C  0.63700810  0.64487185  0.11204067    -0.21500
C1951       C  0.87917010  0.63260612  0.13354811    -0.21500
C1952       C  0.87907429  0.63581756  0.11177973    -0.21500
C1953       C  0.68532313  0.61666785  0.16038315    -0.16800
C1954       C  0.82911333  0.61534807  0.16055167    -0.16800
C1955       C  0.82852631  0.62740832  0.08368312    -0.16800
C1956       C  0.68638242  0.63350564  0.08375569    -0.16800
H1957       H  0.71819576  0.58382113  0.19861341     0.16100
H1958       H  0.79582462  0.58336913  0.19877884     0.16100
H1959       H  0.71758450  0.61271475  0.04305721     0.16100
H1960       H  0.79509349  0.60911964  0.04308468     0.16100
H1961       H  0.61159767  0.64408428  0.14402852     0.14300
H1962       H  0.61223191  0.65363498  0.10232448     0.14300
H1963       H  0.90455928  0.63592026  0.14377528     0.14300
H1964       H  0.90434999  0.64212999  0.10196337     0.14300
H1965       H  0.75755185  0.63557972  0.14103127     0.27600
H1966       H  0.75803978  0.64113822  0.10494023     0.27600
N1967       N  0.75553064  0.87921264  0.15733891    -0.35200
N1968       N  0.69493447  0.87338858  0.12446415    -0.55700
N1969       N  0.75503502  0.86432896  0.09224750    -0.35200
N1970       N  0.81561147  0.87324204  0.12448267    -0.55700
C1971       C  0.72344892  0.89094999  0.16828969     0.28400
C1972       C  0.78778158  0.89078567  0.16832372     0.28400
C1973       C  0.72300160  0.86874466  0.07971215     0.28400
C1974       C  0.78694642  0.86864553  0.07972005     0.28400
C1975       C  0.67183953  0.87263461  0.14191502     0.37000
C1976       C  0.67179009  0.86369371  0.10781026     0.37000
C1977       C  0.83875972  0.87168916  0.14199783     0.37000
C1978       C  0.83828989  0.86266215  0.10786251     0.37000
C1979       C  0.73549568  0.90941407  0.18673018    -0.20400
C1980       C  0.77599175  0.90932136  0.18674714    -0.20400
C1981       C  0.73464987  0.87591748  0.05891876    -0.20400
C1982       C  0.77507085  0.87587958  0.05892595    -0.20400
C1983       C  0.63376011  0.86278545  0.13629408    -0.21500
C1984       C  0.63374843  0.85699259  0.11471165    -0.21500
C1985       C  0.87637775  0.86037937  0.13645878    -0.21500
C1986       C  0.87604407  0.85449628  0.11486635    -0.21500
C1987       C  0.68369083  0.88440188  0.16242504    -0.16800
C1988       C  0.82745056  0.88387454  0.16249917    -0.16800
C1989       C  0.82620715  0.86300273  0.08629751    -0.16800
C1990       C  0.68379516  0.86345873  0.08630322    -0.16800
H1991       H  0.71703593  0.92182163  0.19890036     0.16100
H1992       H  0.79461803  0.92161763  0.19893503     0.16100
H1993       H  0.71596653  0.88014718  0.04512959     0.16100
H1994       H  0.79360189  0.88003170  0.04513495     0.16100
H1995       H  0.60845707  0.86066611  0.14661094     0.14300
H1996       H  0.60840250  0.84955370  0.10515309     0.14300
H1997       H  0.90159084  0.85723608  0.14685133     0.14300
H1998       H  0.90098509  0.84595513  0.10536343     0.14300
H1999       H  0.75540807  0.86130805  0.14413343     0.27600
H2000       H  0.75510879  0.85386468  0.10777076     0.27600
C2001       C  0.62816980  0.59082450  0.80815065    -0.11800
C2002       C  0.65391638  0.59718164  0.82086057    -0.13400
C2003       C  0.88327393  0.59512392  0.80712269    -0.11800
C2004       C  0.85786588  0.60291924  0.81977693    -0.13400
C2005       C  0.62701621  0.90475473  0.80981967    -0.11800
C2006       C  0.65266006  0.89782814  0.82263562    -0.13400
C2007       C  0.85646939  0.89902640  0.82134178    -0.11800
C2008       C  0.88232579  0.90546885  0.80871901    -0.13400
C2009       C  0.63108989  0.64990072  0.05538023    -0.11800
C2010       C  0.65705440  0.64044005  0.06740624    -0.13400
C2011       C  0.88280225  0.64400119  0.05504804    -0.11800
C2012       C  0.85767450  0.63356567  0.06725862    -0.13400
C2013       C  0.65422183  0.85603235  0.07021206    -0.11800
C2014       C  0.62813417  0.84592386  0.05850394    -0.13400
C2015       C  0.85557416  0.85579572  0.07008275    -0.11800
C2016       C  0.88092062  0.84587987  0.05787988    -0.13400
C2017       C  0.63083228  0.85060648  0.94287171    -0.11800
C2018       C  0.65680345  0.86034866  0.93095361    -0.13400
C2019       C  0.88392448  0.85230922  0.94137381    -0.11800
C2020       C  0.85844678  0.86338078  0.92952451    -0.13400
C2021       C  0.62986778  0.65108463  0.94017010    -0.11800
C2022       C  0.65531983  0.63986426  0.92839594    -0.13400
C2023       C  0.85733512  0.64230215  0.92743879    -0.11800
C2024       C  0.88316906  0.65244932  0.93925587    -0.13400
C2025       C  0.85874667  0.89270780  0.17767144    -0.11800
C2026       C  0.88481785  0.90317481  0.18950459    -0.13400
C2027       C  0.62745741  0.90400058  0.18970981    -0.11800
C2028       C  0.65285924  0.89341892  0.17764077    -0.13400
C2029       C  0.86012223  0.60941012  0.17621883    -0.11800
C2030       C  0.88659263  0.60088836  0.18822496    -0.13400
C2031       C  0.62854591  0.60041840  0.18830886    -0.11800
C2032       C  0.65412044  0.60953126  0.17584401    -0.13400
C2033       C  0.60206803  0.62215657  0.68688698    -0.11800
C2034       C  0.61224467  0.64862878  0.67567241    -0.13400
C2035       C  0.61756464  0.84865836  0.67730570    -0.11800
C2036       C  0.60641364  0.87441608  0.68855361    -0.13400
C2037       C  0.90588401  0.62097803  0.68546157    -0.11800
C2038       C  0.89739136  0.64789409  0.67406482    -0.13400
C2039       C  0.89771523  0.84630840  0.67648992    -0.11800
C2040       C  0.90679639  0.87221562  0.68826071    -0.13400
C2041       C  0.86234370  0.62546942  0.55513765    -0.11800
C2042       C  0.87345863  0.65191766  0.56600437    -0.13400
C2043       C  0.86128678  0.88000293  0.55761565    -0.11800
C2044       C  0.87198486  0.85297140  0.56830550    -0.13400
C2045       C  0.66121001  0.62715328  0.55617154    -0.11800
C2046       C  0.65158345  0.65282354  0.56794510    -0.13400
C2047       C  0.65348094  0.85195814  0.56990728    -0.11800
C2048       C  0.66224360  0.87861726  0.55847640    -0.13400
C2049       C  0.60712591  0.62530562  0.31322133    -0.11800
C2050       C  0.61690773  0.65180335  0.32466268    -0.13400
C2051       C  0.61822818  0.85513481  0.32460709    -0.11800
C2052       C  0.60847857  0.88159501  0.31303584    -0.13400
C2053       C  0.65130861  0.65350282  0.43223254    -0.11800
C2054       C  0.66056864  0.62658940  0.44350969    -0.13400
C2055       C  0.64676188  0.85156998  0.43285933    -0.11800
C2056       C  0.65667388  0.87682603  0.44491965    -0.13400
C2057       C  0.89305485  0.65129147  0.32269239    -0.11800
C2058       C  0.90371825  0.62508955  0.31133767    -0.13400
C2059       C  0.89286144  0.85475121  0.32322685    -0.11800
C2060       C  0.90332458  0.88126640  0.31189184    -0.13400
C2061       C  0.86301039  0.65142600  0.43071002    -0.11800
C2062       C  0.85456383  0.62494270  0.44232660    -0.13400
C2063       C  0.86425461  0.85066164  0.43154948    -0.11800
C2064       C  0.85609754  0.87649997  0.44353869    -0.13400
loop_ 
_geom_bond_atom_site_label_1 
_geom_bond_atom_site_label_2 
_geom_bond_distance 
_geom_bond_site_symmetry_2 
_ccdc_geom_bond_type 
N1            C6   1.352       .  A
N1            C5   1.351       .  A
N1           H33   1.035       .  S
N2            C9   1.353       .  A
N2           C10   1.352       .  A
N3            C8   1.359       .  A
N3            C7   1.359       .  A
N3           H34   1.038       .  S
N4           C11   1.354       .  A
N4           C12   1.352       .  A
C5           C13   1.388       .  A
C5           C21   1.412       .  A
C6           C22   1.413       .  A
C6           C14   1.388       .  A
C7           C15   1.387       .  A
C7           C24   1.425       .  A
C8           C23   1.425       .  A
C8           C16   1.388       .  A
C9           C21   1.415       .  A
C9           C17   1.388       .  A
C10          C24   1.413       .  A
C10          C18   1.387       .  A
C11          C19   1.387       .  A
C11          C22   1.416       .  A
C12          C20   1.388       .  A
C12          C23   1.414       .  A
C13          C14   1.375       .  A
C13          H25   1.082       .  S
C14          H26   1.082       .  S
C15          C16   1.381       .  A
C15          H27   1.082       .  S
C16          H28   1.082       .  S
C17          C18   1.370       .  A
C17          H29   1.082       .  S
C18          H30   1.082       .  S
C19          C20   1.370       .  A
C19          H31   1.082       .  S
C20          H32   1.082       .  S
C21         C513   1.447       .  S
C22         C515   1.451       .  S
C23         C511   1.461       .  S
C24         C509   1.462       .  S
N35          C40   1.355       .  A
N35          C39   1.354       .  A
N35          H67   1.036       .  S
N36          C43   1.355       .  A
N36          C44   1.355       .  A
N37          C42   1.355       .  A
N37          C41   1.355       .  A
N37          H68   1.037       .  S
N38          C45   1.350       .  A
N38          C46   1.350       .  A
C39          C47   1.387       .  A
C39          C55   1.413       .  A
C40          C56   1.417       .  A
C40          C48   1.388       .  A
C41          C49   1.386       .  A
C41          C58   1.413       .  A
C42          C57   1.417       .  A
C42          C50   1.388       .  A
C43          C55   1.419       .  A
C43          C51   1.387       .  A
C44          C58   1.420       .  A
C44          C52   1.387       .  A
C45          C53   1.387       .  A
C45          C56   1.411       .  A
C46          C54   1.387       .  A
C46          C57   1.411       .  A
C47          C48   1.376       .  A
C47          H59   1.083       .  S
C48          H60   1.082       .  S
C49          C50   1.375       .  A
C49          H61   1.082       .  S
C50          H62   1.082       .  S
C51          C52   1.380       .  A
C51          H63   1.082       .  S
C52          H64   1.082       .  S
C53          C54   1.375       .  A
C53          H65   1.082       .  S
C54          H66   1.082       .  S
C55         C503   1.458       .  S
C56         C507   1.453       .  S
C57         C505   1.453       .  S
C58         C502   1.463       .  S
N69          N70   1.325       .  A
N69          N75   1.316       .  A
N69        Mn614   2.216       .  S
N70          C77   1.355       .  A
N71          N73   1.316       .  A
N71          N72   1.317       .  A
N71         Mn87   2.187       .  S
N72          C78   1.347       .  A
N73          N74   1.322       .  A
N73         Mn98   2.204       .  S
N74          C78   1.352       .  A
N75          N76   1.317       .  A
N75        Mn603   2.187       .  S
N76          C77   1.346       .  A
C77         C516   1.434       .  S
C78         C514   1.430       .  S
N79          N85   1.316       .  A
N79          N80   1.324       .  A
N79        Mn109   2.216       .  S
N80          C88   1.355       .  A
N81          N82   1.317       .  A
N81          N83   1.316       .  A
N81        Mn603   2.189       .  S
N82          C89   1.347       .  A
N83          N84   1.325       .  A
N83        Mn625   2.221       .  S
N84          C89   1.356       .  A
N85          N86   1.318       .  A
N85         Mn87   2.192       .  S
N86          C88   1.348       .  A
Mn87        N591   2.186   1_545  S
Mn87        N597   2.189   1_545  S
Mn87       Cl111   2.525       .  S
C88         C506   1.438       .  S
C89         C508   1.437       .  S
N90          N91   1.324       .  A
N90          N96   1.316       .  A
N90         Mn98   2.214       .  S
N91          C99   1.354       .  A
N92          N94   1.316       .  A
N92          N93   1.318       .  A
N92        Mn626   2.195       .  S
N93         C100   1.349       .  A
N94          N95   1.322       .  A
N94        Mn614   2.202       .  S
N95         C100   1.352       .  A
N96          N97   1.318       .  A
N96        Mn110   2.193       .  S
N97          C99   1.348       .  A
Mn98        N585   2.216   1_545  S
Mn98        N610   2.203   1_545  S
Mn98       Cl111   2.568       .  S
C99         C493   1.437       .  S
C100        C495   1.432       .  S
N101        N102   1.323       .  A
N101        N107   1.317       .  A
N101       Mn625   2.212       .  S
N102        C112   1.354       .  A
N103        N104   1.318       .  A
N103        N105   1.317       .  A
N103       Mn110   2.193       .  S
N104        C113   1.347       .  A
N105        N106   1.324       .  A
N105       Mn109   2.218       .  S
N106        C113   1.355       .  A
N107        N108   1.317       .  A
N107       Mn626   2.190       .  S
N108        C112   1.347       .  A
Mn109       N599   2.223   1_545  S
Mn109       N617   2.209   1_545  S
Mn109      Cl111   2.570       .  S
Mn110       N608   2.197   1_545  S
Mn110       N623   2.191   1_545  S
Mn110      Cl111   2.527       .  S
C112        C500   1.433       .  S
C113        C497   1.436       .  S
N114        C119   1.354       .  A
N114        C118   1.353       .  A
N114        H146   1.038       .  S
N115        C122   1.351       .  A
N115        C123   1.350       .  A
N116        C121   1.354       .  A
N116        C120   1.353       .  A
N116        H147   1.038       .  S
N117        C124   1.349       .  A
N117        C125   1.349       .  A
C118        C126   1.386       .  A
C118        C134   1.412       .  A
C119        C135   1.417       .  A
C119        C127   1.389       .  A
C120        C128   1.386       .  A
C120        C137   1.411       .  A
C121        C136   1.416       .  A
C121        C129   1.389       .  A
C122        C134   1.410       .  A
C122        C130   1.386       .  A
C123        C137   1.409       .  A
C123        C131   1.387       .  A
C124        C132   1.387       .  A
C124        C135   1.411       .  A
C125        C133   1.387       .  A
C125        C136   1.410       .  A
C126        C127   1.375       .  A
C126        H138   1.082       .  S
C127        H139   1.082       .  S
C128        C129   1.375       .  A
C128        H140   1.083       .  S
C129        H141   1.082       .  S
C130        C131   1.374       .  A
C130        H142   1.082       .  S
C131        H143   1.082       .  S
C132        C133   1.375       .  A
C132        H144   1.082       .  S
C133        H145   1.082       .  S
C134        C494   1.450       .  S
C135        C490   1.451       .  S
C136        C491   1.449       .  S
C137        C496   1.446       .  S
N148        C153   1.353       .  A
N148        C152   1.353       .  A
N148        H180   1.037       .  S
N149        C156   1.350       .  A
N149        C157   1.351       .  A
N150        C155   1.353       .  A
N150        C154   1.354       .  A
N150        H181   1.036       .  S
N151        C158   1.350       .  A
N151        C159   1.350       .  A
C152        C160   1.389       .  A
C152        C168   1.415       .  A
C153        C169   1.411       .  A
C153        C161   1.387       .  A
C154        C162   1.389       .  A
C154        C171   1.417       .  A
C155        C170   1.414       .  A
C155        C163   1.387       .  A
C156        C168   1.411       .  A
C156        C164   1.387       .  A
C157        C171   1.411       .  A
C157        C165   1.386       .  A
C158        C166   1.387       .  A
C158        C169   1.409       .  A
C159        C167   1.387       .  A
C159        C170   1.409       .  A
C160        C161   1.375       .  A
C160        H172   1.082       .  S
C161        H173   1.083       .  S
C162        C163   1.375       .  A
C162        H174   1.082       .  S
C163        H175   1.082       .  S
C164        C165   1.374       .  A
C164        H176   1.082       .  S
C165        H177   1.082       .  S
C166        C167   1.372       .  A
C166        H178   1.082       .  S
C167        H179   1.082       .  S
C168        C499   1.449       .  S
C169        C487   1.446       .  S
C170        C486   1.447       .  S
C171        C498   1.452       .  S
N182        N183   1.316       .  A
N182        N188   1.318       .  A
N182      Mn1243   2.187       .  S
N183        C190   1.343       .  A
N184        N186   1.317       .  A
N184        N185   1.317       .  A
N184       Mn200   2.190       .  S
N185        C191   1.344       .  A
N186        N187   1.329       .  A
N186      Mn1243   2.240       .  S
N187        C191   1.361       .  A
N188        N189   1.329       .  A
N188       Mn200   2.238       .  S
N189        C190   1.361       .  A
C190        C512   1.445       .  S
C191        C478   1.447       .  S
N192        N198   1.317       .  A
N192        N193   1.327       .  A
N192      Mn1254   2.230       .  S
N193        C201   1.360       .  A
N194        N195   1.329       .  A
N194        N196   1.318       .  A
N194       Mn716   2.240       .  S
N195        C202   1.361       .  A
N196        N197   1.316       .  A
N196      Mn1254   2.190       .  S
N197        C202   1.343       .  A
N198        N199   1.314       .  A
N198       Mn716   2.176       .  S
N199        C201   1.341       .  A
Mn200       N710   2.241       .  S
Mn200       N714   2.180       .  S
Mn200     Cl1256   2.555       .  S
C201        C482   1.435       .  S
C202        C510   1.446       .  S
N203        N204   1.327       .  A
N203        N209   1.319       .  A
N203       Mn211   2.231       .  S
N204        C212   1.359       .  A
N205        N207   1.319       .  A
N205        N206   1.328       .  A
N205       Mn223   2.233       .  S
N206        C213   1.360       .  A
N207        N208   1.316       .  A
N207       Mn211   2.189       .  S
N208        C213   1.343       .  A
N209        N210   1.317       .  A
N209       Mn223   2.195       .  S
N210        C212   1.345       .  A
Mn211      N1214   2.187   1_455  S
Mn211      N1218   2.240   1_455  S
Mn211      Cl224   2.548       .  S
C212        C479   1.443       .  S
C213        C504   1.442       .  S
N214        N215   1.316       .  A
N214        N220   1.318       .  A
N214       Mn222   2.187       .  S
N215        C225   1.343       .  A
N216        N217   1.317       .  A
N216        N218   1.317       .  A
N216       Mn739   2.186       .  S
N217        C226   1.344       .  A
N218        N219   1.329       .  A
N218       Mn222   2.240       .  S
N219        C226   1.361       .  A
N220        N221   1.330       .  A
N220       Mn739   2.248       .  S
N221        C225   1.363       .  A
Mn222      N1224   2.230   1_455  S
Mn222      N1228   2.189   1_455  S
Mn222      Cl740   2.549       .  S
Mn223       N732   2.187       .  S
Mn223       N736   2.249       .  S
Mn223      Cl224   2.559       .  S
Cl224     Mn1232   2.555   1_455  S
Cl224      Mn738   2.549       .  S
C225        C501   1.448       .  S
C226        C483   1.446       .  S
N227        N228   1.323       .  A
N227        N233   1.316       .  A
N227      Mn1288   2.210       .  S
N228        C235   1.353       .  A
N229        N231   1.316       .  A
N229        N230   1.319       .  A
N229       Mn245   2.195       .  S
N230        C236   1.349       .  A
N231        N232   1.324       .  A
N231       Mn256   2.212       .  S
N232        C236   1.354       .  A
N233        N234   1.317       .  A
N233      Mn1277   2.191       .  S
N234        C235   1.347       .  A
C235        C476   1.432       .  S
C236        C473   1.438       .  S
N237        N243   1.317       .  A
N237        N238   1.325       .  A
N237       Mn267   2.222       .  S
N238        C246   1.356       .  A
N239        N240   1.317       .  A
N239        N241   1.316       .  A
N239      Mn1277   2.190       .  S
N240        C247   1.347       .  A
N241        N242   1.322       .  A
N241      Mn1299   2.201       .  S
N242        C247   1.352       .  A
N243        N244   1.317       .  A
N243       Mn245   2.188       .  S
N244        C246   1.346       .  A
Mn245      N1265   2.191   1_455  S
Mn245      N1271   2.190   1_455  S
Mn245      Cl269   2.525       .  S
C246        C469   1.437       .  S
C247        C471   1.428       .  S
N248        N249   1.324       .  A
N248        N254   1.316       .  A
N248       Mn256   2.211   1_554  S
N249        C257   1.354       .  A
N250        N252   1.316       .  A
N250        N251   1.317       .  A
N250      Mn1300   2.190       .  S
N251        C258   1.347       .  A
N252        N253   1.324       .  A
N252      Mn1288   2.211   1_554  S
N253        C258   1.353       .  A
N254        N255   1.316       .  A
N254       Mn268   2.186       .  S
N255        C257   1.346       .  A
Mn256      N1259   2.210   1_455  S
Mn256      N1284   2.211   1_456  S
Mn256      Cl269   2.571       .  S
C257        C461   1.432       .  S
C258        C463   1.432       .  S
N259        N260   1.325       .  A
N259        N265   1.316       .  A
N259      Mn1299   2.222   1_554  S
N260        C270   1.355       .  A
N261        N262   1.318       .  A
N261        N263   1.316       .  A
N261       Mn268   2.192       .  S
N262        C271   1.348       .  A
N263        N264   1.323       .  A
N263       Mn267   2.205   1_554  S
N264        C271   1.353       .  A
N265        N266   1.318       .  A
N265      Mn1300   2.192       .  S
N266        C270   1.348       .  A
Mn267      N1273   2.201   1_455  S
Mn267      N1291   2.222   1_456  S
Mn267      Cl269   2.571       .  S
Mn268      N1282   2.190   1_455  S
Mn268      N1297   2.192   1_455  S
Mn268      Cl269   2.524   1_554  S
C270        C468   1.438       .  S
C271        C466   1.435       .  S
N272        C277   1.355       .  A
N272        C276   1.354       .  A
N272        H304   1.035       .  S
N273        C280   1.353       .  A
N273        C281   1.353       .  A
N274        C279   1.353       .  A
N274        C278   1.354       .  A
N274        H305   1.037       .  S
N275        C282   1.352       .  A
N275        C283   1.350       .  A
C276        C284   1.387       .  A
C276        C292   1.416       .  A
C277        C293   1.418       .  A
C277        C285   1.388       .  A
C278        C286   1.387       .  A
C278        C295   1.413       .  A
C279        C294   1.415       .  A
C279        C287   1.389       .  A
C280        C292   1.416       .  A
C280        C288   1.387       .  A
C281        C295   1.415       .  A
C281        C289   1.386       .  A
C282        C290   1.386       .  A
C282        C293   1.412       .  A
C283        C291   1.387       .  A
C283        C294   1.410       .  A
C284        C285   1.375       .  A
C284        H296   1.082       .  S
C285        H297   1.082       .  S
C286        C287   1.373       .  A
C286        H298   1.083       .  S
C287        H299   1.082       .  S
C288        C289   1.374       .  A
C288        H300   1.082       .  S
C289        H301   1.082       .  S
C290        C291   1.372       .  A
C290        H302   1.082       .  S
C291        H303   1.083       .  S
C292        C458   1.456       .  S
C293        C470   1.453       .  S
C294        C472   1.445       .  S
C295        C459   1.453       .  S
N306        C311   1.352       .  A
N306        C310   1.353       .  A
N306        H338   1.037       .  S
N307        C314   1.353       .  A
N307        C315   1.351       .  A
N308        C313   1.355       .  A
N308        C312   1.353       .  A
N308        H339   1.037       .  S
N309        C316   1.351       .  A
N309        C317   1.353       .  A
C310        C318   1.386       .  A
C310        C326   1.412       .  A
C311        C327   1.413       .  A
C311        C319   1.388       .  A
C312        C320   1.388       .  A
C312        C329   1.416       .  A
C313        C328   1.417       .  A
C313        C321   1.387       .  A
C314        C326   1.413       .  A
C314        C322   1.386       .  A
C315        C329   1.413       .  A
C315        C323   1.387       .  A
C316        C324   1.388       .  A
C316        C327   1.414       .  A
C317        C325   1.386       .  A
C317        C328   1.412       .  A
C318        C319   1.376       .  A
C318        H330   1.082       .  S
C319        H331   1.082       .  S
C320        C321   1.376       .  A
C320        H332   1.082       .  S
C321        H333   1.082       .  S
C322        C323   1.371       .  A
C322        H334   1.082       .  S
C323        H335   1.082       .  S
C324        C325   1.372       .  A
C324        H336   1.082       .  S
C325        H337   1.082       .  S
C326        C474   1.453       .  S
C327        C475   1.448       .  S
C328        C456   1.455       .  S
C329        C454   1.450       .  S
N340        N341   1.322       .  A
N340        N346   1.314       .  A
N340       Mn369   2.199       .  S
N341        C348   1.352       .  A
N342        N344   1.315       .  A
N342        N343   1.317       .  A
N342       Mn874   2.183   1_545  S
N343        C349   1.347       .  A
N344        N345   1.323       .  A
N344       Mn885   2.210   1_545  S
N345        C349   1.353       .  A
N346        N347   1.318       .  A
N346       Mn358   2.189       .  S
N347        C348   1.348       .  A
C348        C488   1.431       .  S
C349        C485   1.432       .  S
N350        N356   1.315       .  A
N350        N351   1.324       .  A
N350       Mn896   2.213   1_545  S
N351        C359   1.354       .  A
N352        N353   1.317       .  A
N352        N354   1.315       .  A
N352      Mn1390   2.182       .  S
N353        C360   1.347       .  A
N354        N355   1.324       .  A
N354       Mn380   2.213       .  S
N355        C360   1.354       .  A
N356        N357   1.318       .  A
N356      Mn1906   2.187   1_545  S
N357        C359   1.347       .  A
Mn358       N858   2.183       .  S
Mn358      N1384   2.181   1_455  S
Mn358      N1904   2.188   1_455  S
Mn358      Cl382   2.544       .  S
C359        C489   1.435       .  S
C360        C492   1.434       .  S
N361        N362   1.318       .  A
N361        N367   1.317       .  A
N361       Mn885   2.190   1_545  S
N362        C370   1.349       .  A
N363        N365   1.318       .  A
N363        N364   1.322       .  A
N363       Mn381   2.218       .  S
N364        C371   1.354       .  A
N365        N366   1.320       .  A
N365       Mn369   2.204       .  S
N366        C371   1.351       .  A
N367        N368   1.321       .  A
N367       Mn897   2.216   1_545  S
N368        C370   1.354       .  A
Mn369       N860   2.211       .  S
Mn369       N877   2.189       .  S
Mn369      Cl382   2.549       .  S
C370        C453   1.434       .  S
C371        C457   1.441       .  S
N372        N373   1.319       .  A
N372        N378   1.317       .  A
N372       Mn380   2.195       .  S
N373        C383   1.349       .  A
N374        N375   1.322       .  A
N374        N376   1.318       .  A
N374      Mn1929   2.218   1_545  S
N375        C384   1.354       .  A
N376        N377   1.320       .  A
N376       Mn896   2.204   1_545  S
N377        C384   1.351       .  A
N378        N379   1.322       .  A
N378      Mn1413   2.216       .  S
N379        C383   1.354       .  A
Mn380       N866   2.212       .  S
Mn380       N892   2.202       .  S
Mn380     Cl1414   2.549       .  S
Mn381       N883   2.215       .  S
Mn381      N1922   2.218   1_455  S
Mn381      N1410   2.216   1_455  S
Mn381      Cl382   2.542       .  S
Cl382     Mn1412   2.549   1_455  S
C383        C460   1.437       .  S
C384        C455   1.440       .  S
N385        C390   1.356       .  A
N385        C389   1.357       .  A
N385        H417   1.037       .  S
N386        C393   1.352       .  A
N386        C394   1.352       .  A
N387        C392   1.352       .  A
N387        C391   1.351       .  A
N387        H418   1.038       .  S
N388        C395   1.351       .  A
N388        C396   1.352       .  A
C389        C397   1.388       .  A
C389        C405   1.423       .  A
C390        C406   1.422       .  A
C390        C398   1.388       .  A
C391        C399   1.387       .  A
C391        C408   1.410       .  A
C392        C407   1.409       .  A
C392        C400   1.387       .  A
C393        C405   1.413       .  A
C393        C401   1.386       .  A
C394        C408   1.413       .  A
C394        C402   1.387       .  A
C395        C403   1.388       .  A
C395        C406   1.411       .  A
C396        C404   1.386       .  A
C396        C407   1.411       .  A
C397        C398   1.381       .  A
C397        H409   1.082       .  S
C398        H410   1.082       .  S
C399        C400   1.376       .  A
C399        H411   1.082       .  S
C400        H412   1.082       .  S
C401        C402   1.373       .  A
C401        H413   1.082       .  S
C402        H414   1.082       .  S
C403        C404   1.370       .  A
C403        H415   1.082       .  S
C404        H416   1.082       .  S
C405        C484   1.461       .  S
C406        C481   1.453       .  S
C407        C464   1.448       .  S
C408        C462   1.448       .  S
N419        C424   1.359       .  A
N419        C423   1.358       .  A
N419        H451   1.038       .  S
N420        C427   1.352       .  A
N420        C428   1.352       .  A
N421        C426   1.352       .  A
N421        C425   1.352       .  A
N421        H452   1.037       .  S
N422        C429   1.352       .  A
N422        C430   1.353       .  A
C423        C431   1.388       .  A
C423        C439   1.423       .  A
C424        C440   1.423       .  A
C424        C432   1.387       .  A
C425        C433   1.387       .  A
C425        C442   1.413       .  A
C426        C441   1.413       .  A
C426        C434   1.388       .  A
C427        C439   1.412       .  A
C427        C435   1.387       .  A
C428        C442   1.414       .  A
C428        C436   1.387       .  A
C429        C437   1.386       .  A
C429        C440   1.413       .  A
C430        C438   1.387       .  A
C430        C441   1.415       .  A
C431        C432   1.379       .  A
C431        H443   1.082       .  S
C432        H444   1.082       .  S
C433        C434   1.377       .  A
C433        H445   1.082       .  S
C434        H446   1.082       .  S
C435        C436   1.372       .  A
C435        H447   1.082       .  S
C436        H448   1.082       .  S
C437        C438   1.372       .  A
C437        H449   1.082       .  S
C438        H450   1.082       .  S
C439        C480   1.459       .  S
C440        C477   1.462       .  S
C441        C467   1.453       .  S
C442        C465   1.450       .  S
C453        C454   1.205       .  T
C455        C456   1.209       .  T
C457        C458   1.209       .  T
C459        C460   1.207       .  T
C461        C462   1.204       .  T
C463        C464   1.204       .  T
C465        C466   1.206       .  T
C467        C468   1.208       .  T
C469        C470   1.207       .  T
C471        C472   1.202       .  T
C473        C474   1.208       .  T
C475        C476   1.204       .  T
C477        C478   1.214       .  T
C479        C480   1.211       .  T
C481        C482   1.208       .  T
C483        C484   1.213       .  T
C485        C486   1.204       .  T
C487        C488   1.203       .  T
C489        C490   1.206       .  T
C491        C492   1.205       .  T
C493        C494   1.207       .  T
C495        C496   1.204       .  T
C497        C498   1.207       .  T
C499        C500   1.205       .  T
C501        C502   1.214       .  T
C503        C504   1.211       .  T
C505        C506   1.208       .  T
C507        C508   1.208       .  T
C509        C510   1.214       .  T
C511        C512   1.213       .  T
C513        C514   1.204       .  T
C515        C516   1.206       .  T
N517        C522   1.352       .  A
N517        C521   1.351       .  A
N517        H549   1.035       .  S
N518        C525   1.353       .  A
N518        C526   1.353       .  A
N519        C524   1.358       .  A
N519        C523   1.359       .  A
N519        H550   1.038       .  S
N520        C527   1.354       .  A
N520        C528   1.352       .  A
C521        C529   1.388       .  A
C521        C537   1.412       .  A
C522        C538   1.412       .  A
C522        C530   1.388       .  A
C523        C531   1.387       .  A
C523        C540   1.425       .  A
C524        C539   1.425       .  A
C524        C532   1.388       .  A
C525        C537   1.415       .  A
C525        C533   1.387       .  A
C526        C540   1.413       .  A
C526        C534   1.387       .  A
C527        C535   1.387       .  A
C527        C538   1.416       .  A
C528        C536   1.387       .  A
C528        C539   1.414       .  A
C529        C530   1.376       .  A
C529        H541   1.083       .  S
C530        H542   1.082       .  S
C531        C532   1.381       .  A
C531        H543   1.082       .  S
C532        H544   1.082       .  S
C533        C534   1.370       .  A
C533        H545   1.082       .  S
C534        H546   1.082       .  S
C535        C536   1.370       .  A
C535        H547   1.082       .  S
C536        H548   1.082       .  S
C537       C1029   1.448       .  S
C538       C1031   1.451       .  S
C539       C1027   1.461       .  S
C540       C1025   1.463       .  S
N551        C556   1.355       .  A
N551        C555   1.354       .  A
N551        H583   1.038       .  S
N552        C559   1.354       .  A
N552        C560   1.356       .  A
N553        C558   1.354       .  A
N553        C557   1.354       .  A
N553        H584   1.039       .  S
N554        C561   1.350       .  A
N554        C562   1.350       .  A
C555        C563   1.387       .  A
C555        C571   1.413       .  A
C556        C572   1.417       .  A
C556        C564   1.388       .  A
C557        C565   1.386       .  A
C557        C574   1.413       .  A
C558        C573   1.417       .  A
C558        C566   1.389       .  A
C559        C571   1.420       .  A
C559        C567   1.387       .  A
C560        C574   1.420       .  A
C560        C568   1.387       .  A
C561        C569   1.387       .  A
C561        C572   1.410       .  A
C562        C570   1.387       .  A
C562        C573   1.411       .  A
C563        C564   1.377       .  A
C563        H575   1.083       .  S
C564        H576   1.082       .  S
C565        C566   1.376       .  A
C565        H577   1.082       .  S
C566        H578   1.082       .  S
C567        C568   1.381       .  A
C567        H579   1.082       .  S
C568        H580   1.082       .  S
C569        C570   1.376       .  A
C569        H581   1.082       .  S
C570        H582   1.082       .  S
C571       C1019   1.458       .  S
C572       C1023   1.454       .  S
C573       C1021   1.453       .  S
C574       C1018   1.463       .  S
N585        N586   1.325       .  A
N585        N591   1.316       .  A
N586        C593   1.355       .  A
N587        N589   1.316       .  A
N587        N588   1.317       .  A
N587       Mn603   2.187       .  S
N588        C594   1.347       .  A
N589        N590   1.323       .  A
N589       Mn614   2.204       .  S
N590        C594   1.352       .  A
N591        N592   1.317       .  A
N592        C593   1.346       .  A
C593       C1032   1.434       .  S
C594       C1030   1.431       .  S
N595        N601   1.316       .  A
N595        N596   1.325       .  A
N595       Mn625   2.217       .  S
N596        C604   1.355       .  A
N597        N598   1.317       .  A
N597        N599   1.316       .  A
N598        C605   1.347       .  A
N599        N600   1.326       .  A
N600        C605   1.356       .  A
N601        N602   1.318       .  A
N601       Mn603   2.192       .  S
N602        C604   1.348       .  A
Mn603      Cl627   2.524       .  S
C604       C1022   1.439       .  S
C605       C1024   1.439       .  S
N606        N607   1.323       .  A
N606        N612   1.316       .  A
N606       Mn614   2.212       .  S
N607        C615   1.353       .  A
N608        N610   1.316       .  A
N608        N609   1.318       .  A
N609        C616   1.349       .  A
N610        N611   1.322       .  A
N611        C616   1.352       .  A
N612        N613   1.318       .  A
N612       Mn626   2.192       .  S
N613        C615   1.348       .  A
Mn614      Cl627   2.568       .  S
C615       C1009   1.435       .  S
C616       C1011   1.433       .  S
N617        N618   1.323       .  A
N617        N623   1.317       .  A
N618        C628   1.353       .  A
N619        N620   1.317       .  A
N619        N621   1.316       .  A
N619       Mn626   2.191       .  S
N620        C629   1.347       .  A
N621        N622   1.324       .  A
N621       Mn625   2.215       .  S
N622        C629   1.354       .  A
N623        N624   1.317       .  A
N624        C628   1.347       .  A
Mn625      Cl627   2.571       .  S
Mn626      Cl627   2.526       .  S
C628       C1016   1.432       .  S
C629       C1013   1.435       .  S
N630        C635   1.354       .  A
N630        C634   1.353       .  A
N630        H662   1.038       .  S
N631        C638   1.350       .  A
N631        C639   1.350       .  A
N632        C637   1.354       .  A
N632        C636   1.353       .  A
N632        H663   1.038       .  S
N633        C640   1.349       .  A
N633        C641   1.349       .  A
C634        C642   1.386       .  A
C634        C650   1.412       .  A
C635        C651   1.416       .  A
C635        C643   1.389       .  A
C636        C644   1.386       .  A
C636        C653   1.411       .  A
C637        C652   1.416       .  A
C637        C645   1.389       .  A
C638        C650   1.410       .  A
C638        C646   1.387       .  A
C639        C653   1.409       .  A
C639        C647   1.387       .  A
C640        C648   1.387       .  A
C640        C651   1.410       .  A
C641        C649   1.387       .  A
C641        C652   1.409       .  A
C642        C643   1.376       .  A
C642        H654   1.082       .  S
C643        H655   1.082       .  S
C644        C645   1.376       .  A
C644        H656   1.083       .  S
C645        H657   1.082       .  S
C646        C647   1.375       .  A
C646        H658   1.082       .  S
C647        H659   1.082       .  S
C648        C649   1.376       .  A
C648        H660   1.082       .  S
C649        H661   1.082       .  S
C650       C1010   1.449       .  S
C651       C1006   1.450       .  S
C652       C1007   1.450       .  S
C653       C1012   1.447       .  S
N664        C669   1.353       .  A
N664        C668   1.353       .  A
N664        H696   1.037       .  S
N665        C672   1.350       .  A
N665        C673   1.351       .  A
N666        C671   1.353       .  A
N666        C670   1.354       .  A
N666        H697   1.036       .  S
N667        C674   1.351       .  A
N667        C675   1.350       .  A
C668        C676   1.389       .  A
C668        C684   1.415       .  A
C669        C685   1.412       .  A
C669        C677   1.387       .  A
C670        C678   1.389       .  A
C670        C687   1.418       .  A
C671        C686   1.415       .  A
C671        C679   1.387       .  A
C672        C684   1.411       .  A
C672        C680   1.387       .  A
C673        C687   1.412       .  A
C673        C681   1.387       .  A
C674        C682   1.387       .  A
C674        C685   1.409       .  A
C675        C683   1.387       .  A
C675        C686   1.410       .  A
C676        C677   1.375       .  A
C676        H688   1.082       .  S
C677        H689   1.083       .  S
C678        C679   1.375       .  A
C678        H690   1.082       .  S
C679        H691   1.082       .  S
C680        C681   1.373       .  A
C680        H692   1.082       .  S
C681        H693   1.082       .  S
C682        C683   1.372       .  A
C682        H694   1.082       .  S
C683        H695   1.082       .  S
C684       C1015   1.448       .  S
C685       C1003   1.447       .  S
C686       C1002   1.448       .  S
C687       C1014   1.451       .  S
N698        N699   1.316       .  A
N698        N704   1.318       .  A
N698      Mn1759   2.188       .  S
N699        C706   1.343       .  A
N700        N702   1.317       .  A
N700        N701   1.317       .  A
N700       Mn716   2.189   1_565  S
N701        C707   1.344       .  A
N702        N703   1.329       .  A
N702      Mn1759   2.239       .  S
N703        C707   1.361       .  A
N704        N705   1.329       .  A
N704       Mn716   2.236   1_565  S
N705        C706   1.361       .  A
C706       C1028   1.445       .  S
C707        C994   1.446       .  S
N708        N714   1.318       .  A
N708        N709   1.328       .  A
N708      Mn1770   2.232       .  S
N709        C717   1.360       .  A
N710        N711   1.329       .  A
N710        N712   1.318       .  A
N711        C718   1.362       .  A
N712        N713   1.317       .  A
N712      Mn1770   2.191       .  S
N713        C718   1.343       .  A
N714        N715   1.314       .  A
N715        C717   1.341       .  A
Mn716     Cl1772   2.555       .  S
C717        C998   1.438       .  S
C718       C1026   1.447       .  S
N719        N720   1.327       .  A
N719        N725   1.318       .  A
N719       Mn727   2.230       .  S
N720        C728   1.359       .  A
N721        N723   1.319       .  A
N721        N722   1.328       .  A
N721       Mn739   2.234   1_565  S
N722        C729   1.360       .  A
N723        N724   1.316       .  A
N723       Mn727   2.189       .  S
N724        C729   1.343       .  A
N725        N726   1.317       .  A
N725       Mn739   2.194   1_565  S
N726        C728   1.344       .  A
Mn727      N1730   2.187   1_455  S
Mn727      N1734   2.239   1_455  S
Mn727      Cl740   2.548   1_565  S
C728        C995   1.442       .  S
C729       C1020   1.443       .  S
N730        N731   1.317       .  A
N730        N736   1.318       .  A
N730       Mn738   2.188       .  S
N731        C741   1.343       .  A
N732        N733   1.317       .  A
N732        N734   1.318       .  A
N733        C742   1.344       .  A
N734        N735   1.329       .  A
N734       Mn738   2.242       .  S
N735        C742   1.361       .  A
N736        N737   1.330       .  A
N737        C741   1.363       .  A
Mn738      N1740   2.232   1_455  S
Mn738      N1744   2.191   1_455  S
Mn739      Cl740   2.558       .  S
Cl740     Mn1748   2.555   1_455  S
C741       C1017   1.449       .  S
C742        C999   1.447       .  S
N743        N744   1.323       .  A
N743        N749   1.316       .  A
N743      Mn1804   2.210       .  S
N744        C751   1.353       .  A
N745        N747   1.316       .  A
N745        N746   1.319       .  A
N745       Mn761   2.194       .  S
N746        C752   1.348       .  A
N747        N748   1.324       .  A
N747       Mn772   2.213       .  S
N748        C752   1.354       .  A
N749        N750   1.317       .  A
N749      Mn1793   2.187       .  S
N750        C751   1.347       .  A
C751        C992   1.431       .  S
C752        C989   1.437       .  S
N753        N759   1.317       .  A
N753        N754   1.325       .  A
N753       Mn783   2.224       .  S
N754        C762   1.356       .  A
N755        N756   1.317       .  A
N755        N757   1.316       .  A
N755      Mn1793   2.190       .  S
N756        C763   1.347       .  A
N757        N758   1.322       .  A
N757      Mn1815   2.203       .  S
N758        C763   1.352       .  A
N759        N760   1.317       .  A
N759       Mn761   2.185       .  S
N760        C762   1.346       .  A
Mn761      N1781   2.187   1_455  S
Mn761      N1787   2.190   1_455  S
Mn761      Cl785   2.524       .  S
C762        C985   1.437       .  S
C763        C987   1.429       .  S
N764        N765   1.324       .  A
N764        N770   1.316       .  A
N764       Mn772   2.212   1_554  S
N765        C773   1.354       .  A
N766        N768   1.316       .  A
N766        N767   1.317       .  A
N766      Mn1816   2.192       .  S
N767        C774   1.347       .  A
N768        N769   1.324       .  A
N768      Mn1804   2.212   1_554  S
N769        C774   1.354       .  A
N770        N771   1.317       .  A
N770       Mn784   2.188       .  S
N771        C773   1.346       .  A
Mn772      N1775   2.210   1_455  S
Mn772      N1800   2.212   1_456  S
Mn772      Cl785   2.571       .  S
C773        C977   1.433       .  S
C774        C979   1.434       .  S
N775        N776   1.325       .  A
N775        N781   1.316       .  A
N775      Mn1815   2.224   1_554  S
N776        C786   1.355       .  A
N777        N778   1.318       .  A
N777        N779   1.316       .  A
N777       Mn784   2.193       .  S
N778        C787   1.348       .  A
N779        N780   1.323       .  A
N779       Mn783   2.205   1_554  S
N780        C787   1.353       .  A
N781        N782   1.318       .  A
N781      Mn1816   2.191       .  S
N782        C786   1.347       .  A
Mn783      N1789   2.203   1_455  S
Mn783      N1807   2.223   1_456  S
Mn783      Cl785   2.571       .  S
Mn784      N1798   2.191   1_455  S
Mn784      N1813   2.191   1_455  S
Mn784      Cl785   2.524   1_554  S
C786        C984   1.438       .  S
C787        C982   1.434       .  S
N788        C793   1.355       .  A
N788        C792   1.354       .  A
N788        H820   1.036       .  S
N789        C796   1.353       .  A
N789        C797   1.353       .  A
N790        C795   1.353       .  A
N790        C794   1.353       .  A
N790        H821   1.037       .  S
N791        C798   1.352       .  A
N791        C799   1.350       .  A
C792        C800   1.387       .  A
C792        C808   1.416       .  A
C793        C809   1.418       .  A
C793        C801   1.388       .  A
C794        C802   1.387       .  A
C794        C811   1.412       .  A
C795        C810   1.414       .  A
C795        C803   1.389       .  A
C796        C808   1.416       .  A
C796        C804   1.387       .  A
C797        C811   1.414       .  A
C797        C805   1.386       .  A
C798        C806   1.386       .  A
C798        C809   1.412       .  A
C799        C807   1.387       .  A
C799        C810   1.410       .  A
C800        C801   1.376       .  A
C800        H812   1.082       .  S
C801        H813   1.082       .  S
C802        C803   1.374       .  A
C802        H814   1.083       .  S
C803        H815   1.082       .  S
C804        C805   1.375       .  A
C804        H816   1.082       .  S
C805        H817   1.082       .  S
C806        C807   1.372       .  A
C806        H818   1.082       .  S
C807        H819   1.082       .  S
C808        C974   1.455       .  S
C809        C986   1.453       .  S
C810        C988   1.446       .  S
C811        C975   1.452       .  S
N822        C827   1.352       .  A
N822        C826   1.353       .  A
N822        H854   1.035       .  S
N823        C830   1.353       .  A
N823        C831   1.352       .  A
N824        C829   1.355       .  A
N824        C828   1.353       .  A
N824        H855   1.034       .  S
N825        C832   1.351       .  A
N825        C833   1.353       .  A
C826        C834   1.387       .  A
C826        C842   1.413       .  A
C827        C843   1.414       .  A
C827        C835   1.388       .  A
C828        C836   1.388       .  A
C828        C845   1.418       .  A
C829        C844   1.418       .  A
C829        C837   1.388       .  A
C830        C842   1.414       .  A
C830        C838   1.386       .  A
C831        C845   1.414       .  A
C831        C839   1.388       .  A
C832        C840   1.388       .  A
C832        C843   1.415       .  A
C833        C841   1.386       .  A
C833        C844   1.413       .  A
C834        C835   1.375       .  A
C834        H846   1.082       .  S
C835        H847   1.082       .  S
C836        C837   1.377       .  A
C836        H848   1.082       .  S
C837        H849   1.082       .  S
C838        C839   1.370       .  A
C838        H850   1.082       .  S
C839        H851   1.082       .  S
C840        C841   1.371       .  A
C840        H852   1.082       .  S
C841        H853   1.082       .  S
C842        C990   1.453       .  S
C843        C991   1.447       .  S
C844        C972   1.455       .  S
C845        C970   1.450       .  S
N856        N857   1.322       .  A
N856        N862   1.314       .  A
N856       Mn885   2.200       .  S
N857        C864   1.352       .  A
N858        N860   1.315       .  A
N858        N859   1.317       .  A
N859        C865   1.347       .  A
N860        N861   1.323       .  A
N861        C865   1.353       .  A
N862        N863   1.317       .  A
N862       Mn874   2.187       .  S
N863        C864   1.348       .  A
C864       C1004   1.431       .  S
C865       C1001   1.432       .  S
N866        N872   1.315       .  A
N866        N867   1.324       .  A
N867        C875   1.354       .  A
N868        N869   1.317       .  A
N868        N870   1.315       .  A
N868      Mn1906   2.181       .  S
N869        C876   1.347       .  A
N870        N871   1.324       .  A
N870       Mn896   2.215       .  S
N871        C876   1.354       .  A
N872        N873   1.318       .  A
N872      Mn1390   2.188       .  S
N873        C875   1.348       .  A
Mn874      N1900   2.182   1_455  S
Mn874      N1388   2.187   1_465  S
Mn874      Cl898   2.544       .  S
C875       C1005   1.436       .  S
C876       C1008   1.434       .  S
N877        N878   1.318       .  A
N877        N883   1.317       .  A
N878        C886   1.349       .  A
N879        N881   1.317       .  A
N879        N880   1.322       .  A
N879       Mn897   2.218       .  S
N880        C887   1.354       .  A
N881        N882   1.320       .  A
N881       Mn885   2.203       .  S
N882        C887   1.351       .  A
N883        N884   1.321       .  A
N884        C886   1.354       .  A
Mn885      Cl898   2.549       .  S
C886        C969   1.434       .  S
C887        C973   1.440       .  S
N888        N889   1.319       .  A
N888        N894   1.317       .  A
N888       Mn896   2.194       .  S
N889        C899   1.349       .  A
N890        N891   1.322       .  A
N890        N892   1.318       .  A
N890      Mn1413   2.217       .  S
N891        C900   1.354       .  A
N892        N893   1.320       .  A
N893        C900   1.351       .  A
N894        N895   1.322       .  A
N894      Mn1929   2.215       .  S
N895        C899   1.354       .  A
Mn896     Cl1930   2.550       .  S
Mn897      N1406   2.218   1_465  S
Mn897      N1926   2.215   1_455  S
Mn897      Cl898   2.541       .  S
Cl898     Mn1928   2.550   1_455  S
C899        C976   1.437       .  S
C900        C971   1.440       .  S
N901        C906   1.356       .  A
N901        C905   1.358       .  A
N901        H933   1.037       .  S
N902        C909   1.352       .  A
N902        C910   1.352       .  A
N903        C908   1.352       .  A
N903        C907   1.351       .  A
N903        H934   1.038       .  S
N904        C911   1.351       .  A
N904        C912   1.352       .  A
C905        C913   1.388       .  A
C905        C921   1.423       .  A
C906        C922   1.422       .  A
C906        C914   1.388       .  A
C907        C915   1.387       .  A
C907        C924   1.410       .  A
C908        C923   1.410       .  A
C908        C916   1.387       .  A
C909        C921   1.413       .  A
C909        C917   1.386       .  A
C910        C924   1.414       .  A
C910        C918   1.387       .  A
C911        C919   1.388       .  A
C911        C922   1.411       .  A
C912        C920   1.387       .  A
C912        C923   1.412       .  A
C913        C914   1.381       .  A
C913        H925   1.082       .  S
C914        H926   1.082       .  S
C915        C916   1.376       .  A
C915        H927   1.082       .  S
C916        H928   1.082       .  S
C917        C918   1.373       .  A
C917        H929   1.082       .  S
C918        H930   1.082       .  S
C919        C920   1.371       .  A
C919        H931   1.082       .  S
C920        H932   1.082       .  S
C921       C1000   1.462       .  S
C922        C997   1.455       .  S
C923        C980   1.449       .  S
C924        C978   1.449       .  S
N935        C940   1.357       .  A
N935        C939   1.357       .  A
N935        H967   1.039       .  S
N936        C943   1.352       .  A
N936        C944   1.352       .  A
N937        C942   1.352       .  A
N937        C941   1.352       .  A
N937        H968   1.038       .  S
N938        C945   1.353       .  A
N938        C946   1.353       .  A
C939        C947   1.388       .  A
C939        C955   1.421       .  A
C940        C956   1.422       .  A
C940        C948   1.387       .  A
C941        C949   1.387       .  A
C941        C958   1.411       .  A
C942        C957   1.412       .  A
C942        C950   1.387       .  A
C943        C955   1.411       .  A
C943        C951   1.387       .  A
C944        C958   1.413       .  A
C944        C952   1.387       .  A
C945        C953   1.386       .  A
C945        C956   1.412       .  A
C946        C954   1.387       .  A
C946        C957   1.414       .  A
C947        C948   1.380       .  A
C947        H959   1.082       .  S
C948        H960   1.082       .  S
C949        C950   1.377       .  A
C949        H961   1.082       .  S
C950        H962   1.082       .  S
C951        C952   1.372       .  A
C951        H963   1.082       .  S
C952        H964   1.082       .  S
C953        C954   1.373       .  A
C953        H965   1.082       .  S
C954        H966   1.082       .  S
C955        C996   1.457       .  S
C956        C993   1.461       .  S
C957        C983   1.453       .  S
C958        C981   1.449       .  S
C969        C970   1.205       .  T
C971        C972   1.209       .  T
C973        C974   1.209       .  T
C975        C976   1.207       .  T
C977        C978   1.205       .  T
C979        C980   1.205       .  T
C981        C982   1.205       .  T
C983        C984   1.208       .  T
C985        C986   1.208       .  T
C987        C988   1.203       .  T
C989        C990   1.207       .  T
C991        C992   1.203       .  T
C993        C994   1.213       .  T
C995        C996   1.210       .  T
C997        C998   1.209       .  T
C999       C1000   1.214       .  T
C1001      C1002   1.204       .  T
C1003      C1004   1.204       .  T
C1005      C1006   1.206       .  T
C1007      C1008   1.206       .  T
C1009      C1010   1.206       .  T
C1011      C1012   1.204       .  T
C1013      C1014   1.206       .  T
C1015      C1016   1.204       .  T
C1017      C1018   1.215       .  T
C1019      C1020   1.212       .  T
C1021      C1022   1.208       .  T
C1023      C1024   1.208       .  T
C1025      C1026   1.214       .  T
C1027      C1028   1.213       .  T
C1029      C1030   1.204       .  T
C1031      C1032   1.206       .  T
N1033      C1038   1.352       .  A
N1033      C1037   1.351       .  A
N1033      H1065   1.035       .  S
N1034      C1041   1.353       .  A
N1034      C1042   1.352       .  A
N1035      C1040   1.359       .  A
N1035      C1039   1.359       .  A
N1035      H1066   1.038       .  S
N1036      C1043   1.354       .  A
N1036      C1044   1.352       .  A
C1037      C1045   1.388       .  A
C1037      C1053   1.412       .  A
C1038      C1054   1.413       .  A
C1038      C1046   1.388       .  A
C1039      C1047   1.387       .  A
C1039      C1056   1.425       .  A
C1040      C1055   1.425       .  A
C1040      C1048   1.388       .  A
C1041      C1053   1.414       .  A
C1041      C1049   1.388       .  A
C1042      C1056   1.413       .  A
C1042      C1050   1.387       .  A
C1043      C1051   1.387       .  A
C1043      C1054   1.416       .  A
C1044      C1052   1.388       .  A
C1044      C1055   1.414       .  A
C1045      C1046   1.375       .  A
C1045      H1057   1.083       .  S
C1046      H1058   1.082       .  S
C1047      C1048   1.381       .  A
C1047      H1059   1.082       .  S
C1048      H1060   1.082       .  S
C1049      C1050   1.370       .  A
C1049      H1061   1.082       .  S
C1050      H1062   1.082       .  S
C1051      C1052   1.370       .  A
C1051      H1063   1.082       .  S
C1052      H1064   1.082       .  S
C1053      C1545   1.447       .  S
C1054      C1547   1.451       .  S
C1055      C1543   1.461       .  S
C1056      C1541   1.462       .  S
N1067      C1072   1.355       .  A
N1067      C1071   1.354       .  A
N1067      H1099   1.037       .  S
N1068      C1075   1.355       .  A
N1068      C1076   1.356       .  A
N1069      C1074   1.355       .  A
N1069      C1073   1.354       .  A
N1069      H1100   1.037       .  S
N1070      C1077   1.350       .  A
N1070      C1078   1.350       .  A
C1071      C1079   1.387       .  A
C1071      C1087   1.413       .  A
C1072      C1088   1.417       .  A
C1072      C1080   1.388       .  A
C1073      C1081   1.386       .  A
C1073      C1090   1.413       .  A
C1074      C1089   1.417       .  A
C1074      C1082   1.388       .  A
C1075      C1087   1.420       .  A
C1075      C1083   1.387       .  A
C1076      C1090   1.420       .  A
C1076      C1084   1.387       .  A
C1077      C1085   1.387       .  A
C1077      C1088   1.411       .  A
C1078      C1086   1.386       .  A
C1078      C1089   1.411       .  A
C1079      C1080   1.376       .  A
C1079      H1091   1.083       .  S
C1080      H1092   1.082       .  S
C1081      C1082   1.375       .  A
C1081      H1093   1.082       .  S
C1082      H1094   1.082       .  S
C1083      C1084   1.380       .  A
C1083      H1095   1.082       .  S
C1084      H1096   1.082       .  S
C1085      C1086   1.375       .  A
C1085      H1097   1.082       .  S
C1086      H1098   1.082       .  S
C1087      C1535   1.458       .  S
C1088      C1539   1.453       .  S
C1089      C1537   1.453       .  S
C1090      C1534   1.462       .  S
N1101      N1102   1.325       .  A
N1101      N1107   1.316       .  A
N1101     Mn1646   2.216       .  S
N1102      C1109   1.355       .  A
N1103      N1105   1.316       .  A
N1103      N1104   1.317       .  A
N1103     Mn1119   2.187       .  S
N1104      C1110   1.347       .  A
N1105      N1106   1.322       .  A
N1105     Mn1130   2.204       .  S
N1106      C1110   1.352       .  A
N1107      N1108   1.317       .  A
N1107     Mn1635   2.187       .  S
N1108      C1109   1.346       .  A
C1109      C1548   1.434       .  S
C1110      C1546   1.430       .  S
N1111      N1117   1.316       .  A
N1111      N1112   1.324       .  A
N1111     Mn1141   2.215       .  S
N1112      C1120   1.355       .  A
N1113      N1114   1.317       .  A
N1113      N1115   1.316       .  A
N1113     Mn1635   2.189       .  S
N1114      C1121   1.347       .  A
N1115      N1116   1.325       .  A
N1115     Mn1657   2.221       .  S
N1116      C1121   1.356       .  A
N1117      N1118   1.318       .  A
N1117     Mn1119   2.192       .  S
N1118      C1120   1.348       .  A
Mn1119     N1623   2.186   1_545  S
Mn1119     N1629   2.188   1_545  S
Mn1119    Cl1143   2.525       .  S
C1120      C1538   1.438       .  S
C1121      C1540   1.437       .  S
N1122      N1123   1.324       .  A
N1122      N1128   1.316       .  A
N1122     Mn1130   2.215       .  S
N1123      C1131   1.354       .  A
N1124      N1126   1.316       .  A
N1124      N1125   1.318       .  A
N1124     Mn1658   2.195       .  S
N1125      C1132   1.349       .  A
N1126      N1127   1.322       .  A
N1126     Mn1646   2.202       .  S
N1127      C1132   1.352       .  A
N1128      N1129   1.318       .  A
N1128     Mn1142   2.192       .  S
N1129      C1131   1.348       .  A
Mn1130     N1617   2.217   1_545  S
Mn1130     N1642   2.202   1_545  S
Mn1130    Cl1143   2.568       .  S
C1131      C1525   1.437       .  S
C1132      C1527   1.432       .  S
N1133      N1134   1.324       .  A
N1133      N1139   1.317       .  A
N1133     Mn1657   2.212       .  S
N1134      C1144   1.354       .  A
N1135      N1136   1.318       .  A
N1135      N1137   1.317       .  A
N1135     Mn1142   2.192       .  S
N1136      C1145   1.347       .  A
N1137      N1138   1.325       .  A
N1137     Mn1141   2.218       .  S
N1138      C1145   1.355       .  A
N1139      N1140   1.317       .  A
N1139     Mn1658   2.190       .  S
N1140      C1144   1.347       .  A
Mn1141     N1631   2.223   1_545  S
Mn1141     N1649   2.209   1_545  S
Mn1141    Cl1143   2.571       .  S
Mn1142     N1640   2.196   1_545  S
Mn1142     N1655   2.191   1_545  S
Mn1142    Cl1143   2.526       .  S
C1144      C1532   1.433       .  S
C1145      C1529   1.436       .  S
N1146      C1151   1.354       .  A
N1146      C1150   1.353       .  A
N1146      H1178   1.038       .  S
N1147      C1154   1.351       .  A
N1147      C1155   1.350       .  A
N1148      C1153   1.354       .  A
N1148      C1152   1.353       .  A
N1148      H1179   1.038       .  S
N1149      C1156   1.349       .  A
N1149      C1157   1.349       .  A
C1150      C1158   1.386       .  A
C1150      C1166   1.413       .  A
C1151      C1167   1.417       .  A
C1151      C1159   1.389       .  A
C1152      C1160   1.386       .  A
C1152      C1169   1.411       .  A
C1153      C1168   1.416       .  A
C1153      C1161   1.389       .  A
C1154      C1166   1.410       .  A
C1154      C1162   1.387       .  A
C1155      C1169   1.409       .  A
C1155      C1163   1.387       .  A
C1156      C1164   1.387       .  A
C1156      C1167   1.411       .  A
C1157      C1165   1.387       .  A
C1157      C1168   1.410       .  A
C1158      C1159   1.375       .  A
C1158      H1170   1.082       .  S
C1159      H1171   1.082       .  S
C1160      C1161   1.375       .  A
C1160      H1172   1.083       .  S
C1161      H1173   1.082       .  S
C1162      C1163   1.374       .  A
C1162      H1174   1.082       .  S
C1163      H1175   1.082       .  S
C1164      C1165   1.375       .  A
C1164      H1176   1.082       .  S
C1165      H1177   1.082       .  S
C1166      C1526   1.450       .  S
C1167      C1522   1.451       .  S
C1168      C1523   1.449       .  S
C1169      C1528   1.446       .  S
N1180      C1185   1.353       .  A
N1180      C1184   1.353       .  A
N1180      H1212   1.037       .  S
N1181      C1188   1.350       .  A
N1181      C1189   1.351       .  A
N1182      C1187   1.353       .  A
N1182      C1186   1.354       .  A
N1182      H1213   1.036       .  S
N1183      C1190   1.350       .  A
N1183      C1191   1.350       .  A
C1184      C1192   1.389       .  A
C1184      C1200   1.415       .  A
C1185      C1201   1.411       .  A
C1185      C1193   1.387       .  A
C1186      C1194   1.389       .  A
C1186      C1203   1.417       .  A
C1187      C1202   1.414       .  A
C1187      C1195   1.387       .  A
C1188      C1200   1.411       .  A
C1188      C1196   1.387       .  A
C1189      C1203   1.411       .  A
C1189      C1197   1.386       .  A
C1190      C1198   1.387       .  A
C1190      C1201   1.409       .  A
C1191      C1199   1.387       .  A
C1191      C1202   1.409       .  A
C1192      C1193   1.375       .  A
C1192      H1204   1.082       .  S
C1193      H1205   1.083       .  S
C1194      C1195   1.375       .  A
C1194      H1206   1.082       .  S
C1195      H1207   1.082       .  S
C1196      C1197   1.374       .  A
C1196      H1208   1.082       .  S
C1197      H1209   1.082       .  S
C1198      C1199   1.372       .  A
C1198      H1210   1.082       .  S
C1199      H1211   1.082       .  S
C1200      C1531   1.449       .  S
C1201      C1519   1.446       .  S
C1202      C1518   1.447       .  S
C1203      C1530   1.452       .  S
N1214      N1215   1.316       .  A
N1214      N1220   1.318       .  A
N1215      C1222   1.343       .  A
N1216      N1218   1.317       .  A
N1216      N1217   1.317       .  A
N1216     Mn1232   2.189       .  S
N1217      C1223   1.344       .  A
N1218      N1219   1.329       .  A
N1219      C1223   1.361       .  A
N1220      N1221   1.329       .  A
N1220     Mn1232   2.238       .  S
N1221      C1222   1.361       .  A
C1222      C1544   1.445       .  S
C1223      C1510   1.447       .  S
N1224      N1230   1.317       .  A
N1224      N1225   1.327       .  A
N1225      C1233   1.360       .  A
N1226      N1227   1.329       .  A
N1226      N1228   1.318       .  A
N1226     Mn1748   2.240       .  S
N1227      C1234   1.361       .  A
N1228      N1229   1.316       .  A
N1229      C1234   1.343       .  A
N1230      N1231   1.314       .  A
N1230     Mn1748   2.176       .  S
N1231      C1233   1.341       .  A
Mn1232     N1742   2.240       .  S
Mn1232     N1746   2.180       .  S
C1233      C1514   1.436       .  S
C1234      C1542   1.446       .  S
N1235      N1236   1.327       .  A
N1235      N1241   1.318       .  A
N1235     Mn1243   2.230       .  S
N1236      C1244   1.359       .  A
N1237      N1239   1.319       .  A
N1237      N1238   1.328       .  A
N1237     Mn1255   2.234       .  S
N1238      C1245   1.360       .  A
N1239      N1240   1.316       .  A
N1239     Mn1243   2.189       .  S
N1240      C1245   1.343       .  A
N1241      N1242   1.317       .  A
N1241     Mn1255   2.195       .  S
N1242      C1244   1.345       .  A
Mn1243    Cl1256   2.548       .  S
C1244      C1511   1.442       .  S
C1245      C1536   1.442       .  S
N1246      N1247   1.316       .  A
N1246      N1252   1.318       .  A
N1246     Mn1254   2.186       .  S
N1247      C1257   1.343       .  A
N1248      N1249   1.317       .  A
N1248      N1250   1.317       .  A
N1248     Mn1771   2.186       .  S
N1249      C1258   1.344       .  A
N1250      N1251   1.329       .  A
N1250     Mn1254   2.240       .  S
N1251      C1258   1.361       .  A
N1252      N1253   1.330       .  A
N1252     Mn1771   2.248       .  S
N1253      C1257   1.363       .  A
Mn1254    Cl1772   2.549       .  S
Mn1255     N1764   2.188       .  S
Mn1255     N1768   2.249       .  S
Mn1255    Cl1256   2.559       .  S
Cl1256    Mn1770   2.549       .  S
C1257      C1533   1.448       .  S
C1258      C1515   1.446       .  S
N1259      N1260   1.323       .  A
N1259      N1265   1.316       .  A
N1260      C1267   1.353       .  A
N1261      N1263   1.316       .  A
N1261      N1262   1.319       .  A
N1261     Mn1277   2.194       .  S
N1262      C1268   1.349       .  A
N1263      N1264   1.324       .  A
N1263     Mn1288   2.213       .  S
N1264      C1268   1.354       .  A
N1265      N1266   1.317       .  A
N1266      C1267   1.347       .  A
C1267      C1508   1.432       .  S
C1268      C1505   1.438       .  S
N1269      N1275   1.317       .  A
N1269      N1270   1.325       .  A
N1269     Mn1299   2.221       .  S
N1270      C1278   1.356       .  A
N1271      N1272   1.317       .  A
N1271      N1273   1.316       .  A
N1272      C1279   1.347       .  A
N1273      N1274   1.322       .  A
N1274      C1279   1.352       .  A
N1275      N1276   1.317       .  A
N1275     Mn1277   2.187       .  S
N1276      C1278   1.346       .  A
Mn1277    Cl1301   2.525       .  S
C1278      C1501   1.436       .  S
C1279      C1503   1.428       .  S
N1280      N1281   1.324       .  A
N1280      N1286   1.316       .  A
N1280     Mn1288   2.210   1_554  S
N1281      C1289   1.354       .  A
N1282      N1284   1.316       .  A
N1282      N1283   1.317       .  A
N1283      C1290   1.347       .  A
N1284      N1285   1.324       .  A
N1285      C1290   1.353       .  A
N1286      N1287   1.316       .  A
N1286     Mn1300   2.186       .  S
N1287      C1289   1.346       .  A
Mn1288    Cl1301   2.571       .  S
C1289      C1493   1.432       .  S
C1290      C1495   1.432       .  S
N1291      N1292   1.325       .  A
N1291      N1297   1.316       .  A
N1292      C1302   1.355       .  A
N1293      N1294   1.318       .  A
N1293      N1295   1.316       .  A
N1293     Mn1300   2.192       .  S
N1294      C1303   1.348       .  A
N1295      N1296   1.323       .  A
N1295     Mn1299   2.205   1_554  S
N1296      C1303   1.353       .  A
N1297      N1298   1.318       .  A
N1298      C1302   1.348       .  A
Mn1299    Cl1301   2.571       .  S
Mn1300    Cl1301   2.524   1_554  S
C1302      C1500   1.438       .  S
C1303      C1498   1.434       .  S
N1304      C1309   1.355       .  A
N1304      C1308   1.354       .  A
N1304      H1336   1.035       .  S
N1305      C1312   1.353       .  A
N1305      C1313   1.353       .  A
N1306      C1311   1.353       .  A
N1306      C1310   1.354       .  A
N1306      H1337   1.037       .  S
N1307      C1314   1.351       .  A
N1307      C1315   1.350       .  A
C1308      C1316   1.387       .  A
C1308      C1324   1.416       .  A
C1309      C1325   1.418       .  A
C1309      C1317   1.388       .  A
C1310      C1318   1.387       .  A
C1310      C1327   1.413       .  A
C1311      C1326   1.415       .  A
C1311      C1319   1.389       .  A
C1312      C1324   1.416       .  A
C1312      C1320   1.387       .  A
C1313      C1327   1.415       .  A
C1313      C1321   1.386       .  A
C1314      C1322   1.387       .  A
C1314      C1325   1.412       .  A
C1315      C1323   1.387       .  A
C1315      C1326   1.410       .  A
C1316      C1317   1.375       .  A
C1316      H1328   1.082       .  S
C1317      H1329   1.082       .  S
C1318      C1319   1.373       .  A
C1318      H1330   1.083       .  S
C1319      H1331   1.082       .  S
C1320      C1321   1.374       .  A
C1320      H1332   1.082       .  S
C1321      H1333   1.082       .  S
C1322      C1323   1.372       .  A
C1322      H1334   1.082       .  S
C1323      H1335   1.083       .  S
C1324      C1490   1.455       .  S
C1325      C1502   1.453       .  S
C1326      C1504   1.445       .  S
C1327      C1491   1.453       .  S
N1338      C1343   1.352       .  A
N1338      C1342   1.353       .  A
N1338      H1370   1.037       .  S
N1339      C1346   1.353       .  A
N1339      C1347   1.351       .  A
N1340      C1345   1.355       .  A
N1340      C1344   1.353       .  A
N1340      H1371   1.037       .  S
N1341      C1348   1.351       .  A
N1341      C1349   1.352       .  A
C1342      C1350   1.386       .  A
C1342      C1358   1.411       .  A
C1343      C1359   1.413       .  A
C1343      C1351   1.388       .  A
C1344      C1352   1.388       .  A
C1344      C1361   1.417       .  A
C1345      C1360   1.417       .  A
C1345      C1353   1.387       .  A
C1346      C1358   1.413       .  A
C1346      C1354   1.386       .  A
C1347      C1361   1.413       .  A
C1347      C1355   1.387       .  A
C1348      C1356   1.388       .  A
C1348      C1359   1.414       .  A
C1349      C1357   1.386       .  A
C1349      C1360   1.412       .  A
C1350      C1351   1.376       .  A
C1350      H1362   1.082       .  S
C1351      H1363   1.082       .  S
C1352      C1353   1.377       .  A
C1352      H1364   1.082       .  S
C1353      H1365   1.082       .  S
C1354      C1355   1.371       .  A
C1354      H1366   1.082       .  S
C1355      H1367   1.082       .  S
C1356      C1357   1.372       .  A
C1356      H1368   1.082       .  S
C1357      H1369   1.082       .  S
C1358      C1506   1.453       .  S
C1359      C1507   1.447       .  S
C1360      C1488   1.455       .  S
C1361      C1486   1.450       .  S
N1372      N1373   1.322       .  A
N1372      N1378   1.314       .  A
N1372     Mn1401   2.199       .  S
N1373      C1380   1.352       .  A
N1374      N1376   1.315       .  A
N1374      N1375   1.317       .  A
N1374     Mn1906   2.183   1_545  S
N1375      C1381   1.347       .  A
N1376      N1377   1.323       .  A
N1376     Mn1917   2.210   1_545  S
N1377      C1381   1.353       .  A
N1378      N1379   1.318       .  A
N1378     Mn1390   2.189       .  S
N1379      C1380   1.348       .  A
C1380      C1520   1.431       .  S
C1381      C1517   1.432       .  S
N1382      N1388   1.315       .  A
N1382      N1383   1.324       .  A
N1382     Mn1928   2.212   1_545  S
N1383      C1391   1.354       .  A
N1384      N1385   1.317       .  A
N1384      N1386   1.315       .  A
N1385      C1392   1.347       .  A
N1386      N1387   1.324       .  A
N1386     Mn1412   2.212       .  S
N1387      C1392   1.354       .  A
N1388      N1389   1.318       .  A
N1389      C1391   1.347       .  A
Mn1390     N1890   2.182       .  S
Mn1390    Cl1414   2.541       .  S
C1391      C1521   1.436       .  S
C1392      C1524   1.433       .  S
N1393      N1394   1.318       .  A
N1393      N1399   1.317       .  A
N1393     Mn1917   2.189   1_545  S
N1394      C1402   1.349       .  A
N1395      N1397   1.318       .  A
N1395      N1396   1.322       .  A
N1395     Mn1413   2.218       .  S
N1396      C1403   1.354       .  A
N1397      N1398   1.320       .  A
N1397     Mn1401   2.203       .  S
N1398      C1403   1.351       .  A
N1399      N1400   1.321       .  A
N1399     Mn1929   2.216   1_545  S
N1400      C1402   1.354       .  A
Mn1401     N1892   2.211       .  S
Mn1401     N1909   2.189       .  S
Mn1401    Cl1414   2.549       .  S
C1402      C1485   1.434       .  S
C1403      C1489   1.441       .  S
N1404      N1405   1.319       .  A
N1404      N1410   1.317       .  A
N1404     Mn1412   2.196       .  S
N1405      C1415   1.349       .  A
N1406      N1407   1.322       .  A
N1406      N1408   1.318       .  A
N1407      C1416   1.354       .  A
N1408      N1409   1.320       .  A
N1408     Mn1928   2.205   1_545  S
N1409      C1416   1.351       .  A
N1410      N1411   1.322       .  A
N1411      C1415   1.354       .  A
Mn1412     N1898   2.211       .  S
Mn1412     N1924   2.203       .  S
Mn1413     N1915   2.215       .  S
Mn1413    Cl1414   2.544       .  S
C1415      C1492   1.437       .  S
C1416      C1487   1.440       .  S
N1417      C1422   1.356       .  A
N1417      C1421   1.357       .  A
N1417      H1449   1.037       .  S
N1418      C1425   1.352       .  A
N1418      C1426   1.352       .  A
N1419      C1424   1.352       .  A
N1419      C1423   1.351       .  A
N1419      H1450   1.038       .  S
N1420      C1427   1.350       .  A
N1420      C1428   1.352       .  A
C1421      C1429   1.388       .  A
C1421      C1437   1.423       .  A
C1422      C1438   1.422       .  A
C1422      C1430   1.388       .  A
C1423      C1431   1.387       .  A
C1423      C1440   1.410       .  A
C1424      C1439   1.409       .  A
C1424      C1432   1.387       .  A
C1425      C1437   1.413       .  A
C1425      C1433   1.386       .  A
C1426      C1440   1.413       .  A
C1426      C1434   1.387       .  A
C1427      C1435   1.388       .  A
C1427      C1438   1.411       .  A
C1428      C1436   1.386       .  A
C1428      C1439   1.411       .  A
C1429      C1430   1.381       .  A
C1429      H1441   1.082       .  S
C1430      H1442   1.082       .  S
C1431      C1432   1.376       .  A
C1431      H1443   1.082       .  S
C1432      H1444   1.082       .  S
C1433      C1434   1.373       .  A
C1433      H1445   1.082       .  S
C1434      H1446   1.082       .  S
C1435      C1436   1.370       .  A
C1435      H1447   1.082       .  S
C1436      H1448   1.082       .  S
C1437      C1516   1.461       .  S
C1438      C1513   1.453       .  S
C1439      C1496   1.448       .  S
C1440      C1494   1.448       .  S
N1451      C1456   1.358       .  A
N1451      C1455   1.358       .  A
N1451      H1483   1.038       .  S
N1452      C1459   1.351       .  A
N1452      C1460   1.352       .  A
N1453      C1458   1.352       .  A
N1453      C1457   1.352       .  A
N1453      H1484   1.037       .  S
N1454      C1461   1.352       .  A
N1454      C1462   1.353       .  A
C1455      C1463   1.388       .  A
C1455      C1471   1.423       .  A
C1456      C1472   1.423       .  A
C1456      C1464   1.387       .  A
C1457      C1465   1.387       .  A
C1457      C1474   1.413       .  A
C1458      C1473   1.413       .  A
C1458      C1466   1.387       .  A
C1459      C1471   1.412       .  A
C1459      C1467   1.387       .  A
C1460      C1474   1.414       .  A
C1460      C1468   1.388       .  A
C1461      C1469   1.387       .  A
C1461      C1472   1.413       .  A
C1462      C1470   1.387       .  A
C1462      C1473   1.415       .  A
C1463      C1464   1.379       .  A
C1463      H1475   1.082       .  S
C1464      H1476   1.082       .  S
C1465      C1466   1.377       .  A
C1465      H1477   1.082       .  S
C1466      H1478   1.082       .  S
C1467      C1468   1.372       .  A
C1467      H1479   1.082       .  S
C1468      H1480   1.082       .  S
C1469      C1470   1.372       .  A
C1469      H1481   1.082       .  S
C1470      H1482   1.082       .  S
C1471      C1512   1.458       .  S
C1472      C1509   1.462       .  S
C1473      C1499   1.453       .  S
C1474      C1497   1.450       .  S
C1485      C1486   1.206       .  T
C1487      C1488   1.209       .  T
C1489      C1490   1.209       .  T
C1491      C1492   1.207       .  T
C1493      C1494   1.204       .  T
C1495      C1496   1.204       .  T
C1497      C1498   1.206       .  T
C1499      C1500   1.208       .  T
C1501      C1502   1.207       .  T
C1503      C1504   1.202       .  T
C1505      C1506   1.208       .  T
C1507      C1508   1.204       .  T
C1509      C1510   1.214       .  T
C1511      C1512   1.211       .  T
C1513      C1514   1.208       .  T
C1515      C1516   1.213       .  T
C1517      C1518   1.204       .  T
C1519      C1520   1.203       .  T
C1521      C1522   1.206       .  T
C1523      C1524   1.205       .  T
C1525      C1526   1.207       .  T
C1527      C1528   1.204       .  T
C1529      C1530   1.207       .  T
C1531      C1532   1.205       .  T
C1533      C1534   1.214       .  T
C1535      C1536   1.211       .  T
C1537      C1538   1.208       .  T
C1539      C1540   1.208       .  T
C1541      C1542   1.213       .  T
C1543      C1544   1.213       .  T
C1545      C1546   1.203       .  T
C1547      C1548   1.206       .  T
N1549      C1554   1.352       .  A
N1549      C1553   1.351       .  A
N1549      H1581   1.035       .  S
N1550      C1557   1.353       .  A
N1550      C1558   1.353       .  A
N1551      C1556   1.358       .  A
N1551      C1555   1.359       .  A
N1551      H1582   1.038       .  S
N1552      C1559   1.354       .  A
N1552      C1560   1.352       .  A
C1553      C1561   1.388       .  A
C1553      C1569   1.412       .  A
C1554      C1570   1.412       .  A
C1554      C1562   1.388       .  A
C1555      C1563   1.387       .  A
C1555      C1572   1.425       .  A
C1556      C1571   1.425       .  A
C1556      C1564   1.388       .  A
C1557      C1569   1.415       .  A
C1557      C1565   1.387       .  A
C1558      C1572   1.413       .  A
C1558      C1566   1.387       .  A
C1559      C1567   1.387       .  A
C1559      C1570   1.416       .  A
C1560      C1568   1.387       .  A
C1560      C1571   1.414       .  A
C1561      C1562   1.376       .  A
C1561      H1573   1.083       .  S
C1562      H1574   1.082       .  S
C1563      C1564   1.381       .  A
C1563      H1575   1.082       .  S
C1564      H1576   1.082       .  S
C1565      C1566   1.370       .  A
C1565      H1577   1.082       .  S
C1566      H1578   1.082       .  S
C1567      C1568   1.370       .  A
C1567      H1579   1.082       .  S
C1568      H1580   1.082       .  S
C1569      C2061   1.448       .  S
C1570      C2063   1.451       .  S
C1571      C2059   1.461       .  S
C1572      C2057   1.463       .  S
N1583      C1588   1.355       .  A
N1583      C1587   1.354       .  A
N1583      H1615   1.038       .  S
N1584      C1591   1.354       .  A
N1584      C1592   1.355       .  A
N1585      C1590   1.354       .  A
N1585      C1589   1.354       .  A
N1585      H1616   1.040       .  S
N1586      C1593   1.350       .  A
N1586      C1594   1.350       .  A
C1587      C1595   1.387       .  A
C1587      C1603   1.413       .  A
C1588      C1604   1.417       .  A
C1588      C1596   1.388       .  A
C1589      C1597   1.386       .  A
C1589      C1606   1.413       .  A
C1590      C1605   1.417       .  A
C1590      C1598   1.389       .  A
C1591      C1603   1.419       .  A
C1591      C1599   1.387       .  A
C1592      C1606   1.420       .  A
C1592      C1600   1.387       .  A
C1593      C1601   1.387       .  A
C1593      C1604   1.410       .  A
C1594      C1602   1.387       .  A
C1594      C1605   1.411       .  A
C1595      C1596   1.377       .  A
C1595      H1607   1.083       .  S
C1596      H1608   1.082       .  S
C1597      C1598   1.376       .  A
C1597      H1609   1.082       .  S
C1598      H1610   1.082       .  S
C1599      C1600   1.381       .  A
C1599      H1611   1.082       .  S
C1600      H1612   1.082       .  S
C1601      C1602   1.376       .  A
C1601      H1613   1.082       .  S
C1602      H1614   1.082       .  S
C1603      C2051   1.458       .  S
C1604      C2055   1.454       .  S
C1605      C2053   1.453       .  S
C1606      C2050   1.463       .  S
N1617      N1618   1.325       .  A
N1617      N1623   1.316       .  A
N1618      C1625   1.355       .  A
N1619      N1621   1.316       .  A
N1619      N1620   1.317       .  A
N1619     Mn1635   2.187       .  S
N1620      C1626   1.347       .  A
N1621      N1622   1.323       .  A
N1621     Mn1646   2.204       .  S
N1622      C1626   1.353       .  A
N1623      N1624   1.317       .  A
N1624      C1625   1.346       .  A
C1625      C2064   1.435       .  S
C1626      C2062   1.431       .  S
N1627      N1633   1.316       .  A
N1627      N1628   1.325       .  A
N1627     Mn1657   2.217       .  S
N1628      C1636   1.355       .  A
N1629      N1630   1.317       .  A
N1629      N1631   1.316       .  A
N1630      C1637   1.346       .  A
N1631      N1632   1.326       .  A
N1632      C1637   1.356       .  A
N1633      N1634   1.318       .  A
N1633     Mn1635   2.191       .  S
N1634      C1636   1.348       .  A
Mn1635    Cl1659   2.525       .  S
C1636      C2054   1.439       .  S
C1637      C2056   1.438       .  S
N1638      N1639   1.323       .  A
N1638      N1644   1.316       .  A
N1638     Mn1646   2.213       .  S
N1639      C1647   1.353       .  A
N1640      N1642   1.316       .  A
N1640      N1641   1.318       .  A
N1641      C1648   1.349       .  A
N1642      N1643   1.322       .  A
N1643      C1648   1.352       .  A
N1644      N1645   1.318       .  A
N1644     Mn1658   2.192       .  S
N1645      C1647   1.348       .  A
Mn1646    Cl1659   2.568       .  S
C1647      C2041   1.436       .  S
C1648      C2043   1.432       .  S
N1649      N1650   1.323       .  A
N1649      N1655   1.317       .  A
N1650      C1660   1.353       .  A
N1651      N1652   1.317       .  A
N1651      N1653   1.316       .  A
N1651     Mn1658   2.191       .  S
N1652      C1661   1.347       .  A
N1653      N1654   1.324       .  A
N1653     Mn1657   2.215       .  S
N1654      C1661   1.354       .  A
N1655      N1656   1.317       .  A
N1656      C1660   1.347       .  A
Mn1657    Cl1659   2.571       .  S
Mn1658    Cl1659   2.526       .  S
C1660      C2048   1.432       .  S
C1661      C2045   1.435       .  S
N1662      C1667   1.354       .  A
N1662      C1666   1.353       .  A
N1662      H1694   1.038       .  S
N1663      C1670   1.350       .  A
N1663      C1671   1.350       .  A
N1664      C1669   1.354       .  A
N1664      C1668   1.353       .  A
N1664      H1695   1.038       .  S
N1665      C1672   1.349       .  A
N1665      C1673   1.349       .  A
C1666      C1674   1.386       .  A
C1666      C1682   1.412       .  A
C1667      C1683   1.416       .  A
C1667      C1675   1.389       .  A
C1668      C1676   1.386       .  A
C1668      C1685   1.411       .  A
C1669      C1684   1.416       .  A
C1669      C1677   1.389       .  A
C1670      C1682   1.410       .  A
C1670      C1678   1.387       .  A
C1671      C1685   1.409       .  A
C1671      C1679   1.387       .  A
C1672      C1680   1.387       .  A
C1672      C1683   1.410       .  A
C1673      C1681   1.387       .  A
C1673      C1684   1.409       .  A
C1674      C1675   1.376       .  A
C1674      H1686   1.082       .  S
C1675      H1687   1.082       .  S
C1676      C1677   1.376       .  A
C1676      H1688   1.082       .  S
C1677      H1689   1.082       .  S
C1678      C1679   1.375       .  A
C1678      H1690   1.082       .  S
C1679      H1691   1.082       .  S
C1680      C1681   1.376       .  A
C1680      H1692   1.082       .  S
C1681      H1693   1.082       .  S
C1682      C2042   1.449       .  S
C1683      C2038   1.450       .  S
C1684      C2039   1.450       .  S
C1685      C2044   1.447       .  S
N1696      C1701   1.353       .  A
N1696      C1700   1.353       .  A
N1696      H1728   1.037       .  S
N1697      C1704   1.350       .  A
N1697      C1705   1.351       .  A
N1698      C1703   1.353       .  A
N1698      C1702   1.354       .  A
N1698      H1729   1.036       .  S
N1699      C1706   1.351       .  A
N1699      C1707   1.350       .  A
C1700      C1708   1.389       .  A
C1700      C1716   1.415       .  A
C1701      C1717   1.412       .  A
C1701      C1709   1.387       .  A
C1702      C1710   1.389       .  A
C1702      C1719   1.418       .  A
C1703      C1718   1.414       .  A
C1703      C1711   1.387       .  A
C1704      C1716   1.411       .  A
C1704      C1712   1.387       .  A
C1705      C1719   1.412       .  A
C1705      C1713   1.387       .  A
C1706      C1714   1.387       .  A
C1706      C1717   1.409       .  A
C1707      C1715   1.387       .  A
C1707      C1718   1.410       .  A
C1708      C1709   1.375       .  A
C1708      H1720   1.082       .  S
C1709      H1721   1.083       .  S
C1710      C1711   1.375       .  A
C1710      H1722   1.082       .  S
C1711      H1723   1.082       .  S
C1712      C1713   1.373       .  A
C1712      H1724   1.082       .  S
C1713      H1725   1.082       .  S
C1714      C1715   1.372       .  A
C1714      H1726   1.082       .  S
C1715      H1727   1.082       .  S
C1716      C2047   1.448       .  S
C1717      C2035   1.446       .  S
C1718      C2034   1.448       .  S
C1719      C2046   1.451       .  S
N1730      N1731   1.316       .  A
N1730      N1736   1.318       .  A
N1731      C1738   1.343       .  A
N1732      N1734   1.317       .  A
N1732      N1733   1.317       .  A
N1732     Mn1748   2.189   1_565  S
N1733      C1739   1.344       .  A
N1734      N1735   1.329       .  A
N1735      C1739   1.361       .  A
N1736      N1737   1.329       .  A
N1736     Mn1748   2.236   1_565  S
N1737      C1738   1.361       .  A
C1738      C2060   1.444       .  S
C1739      C2026   1.447       .  S
N1740      N1746   1.318       .  A
N1740      N1741   1.328       .  A
N1741      C1749   1.360       .  A
N1742      N1743   1.329       .  A
N1742      N1744   1.318       .  A
N1743      C1750   1.361       .  A
N1744      N1745   1.317       .  A
N1745      C1750   1.343       .  A
N1746      N1747   1.314       .  A
N1747      C1749   1.341       .  A
C1749      C2030   1.438       .  S
C1750      C2058   1.447       .  S
N1751      N1752   1.327       .  A
N1751      N1757   1.318       .  A
N1751     Mn1759   2.230       .  S
N1752      C1760   1.359       .  A
N1753      N1755   1.319       .  A
N1753      N1754   1.328       .  A
N1753     Mn1771   2.234   1_565  S
N1754      C1761   1.360       .  A
N1755      N1756   1.316       .  A
N1755     Mn1759   2.189       .  S
N1756      C1761   1.343       .  A
N1757      N1758   1.317       .  A
N1757     Mn1771   2.194   1_565  S
N1758      C1760   1.344       .  A
Mn1759    Cl1772   2.547   1_565  S
C1760      C2027   1.442       .  S
C1761      C2052   1.443       .  S
N1762      N1763   1.317       .  A
N1762      N1768   1.318       .  A
N1762     Mn1770   2.188       .  S
N1763      C1773   1.343       .  A
N1764      N1765   1.317       .  A
N1764      N1766   1.318       .  A
N1765      C1774   1.344       .  A
N1766      N1767   1.329       .  A
N1766     Mn1770   2.242       .  S
N1767      C1774   1.361       .  A
N1768      N1769   1.330       .  A
N1769      C1773   1.363       .  A
Mn1771    Cl1772   2.558       .  S
C1773      C2049   1.449       .  S
C1774      C2031   1.447       .  S
N1775      N1776   1.323       .  A
N1775      N1781   1.316       .  A
N1776      C1783   1.353       .  A
N1777      N1779   1.316       .  A
N1777      N1778   1.319       .  A
N1777     Mn1793   2.195       .  S
N1778      C1784   1.349       .  A
N1779      N1780   1.324       .  A
N1779     Mn1804   2.212       .  S
N1780      C1784   1.354       .  A
N1781      N1782   1.317       .  A
N1782      C1783   1.347       .  A
C1783      C2024   1.431       .  S
C1784      C2021   1.437       .  S
N1785      N1791   1.317       .  A
N1785      N1786   1.325       .  A
N1785     Mn1815   2.225       .  S
N1786      C1794   1.356       .  A
N1787      N1788   1.317       .  A
N1787      N1789   1.316       .  A
N1788      C1795   1.347       .  A
N1789      N1790   1.322       .  A
N1790      C1795   1.352       .  A
N1791      N1792   1.317       .  A
N1791     Mn1793   2.184       .  S
N1792      C1794   1.346       .  A
Mn1793    Cl1817   2.524       .  S
C1794      C2017   1.437       .  S
C1795      C2019   1.429       .  S
N1796      N1797   1.324       .  A
N1796      N1802   1.316       .  A
N1796     Mn1804   2.212   1_554  S
N1797      C1805   1.354       .  A
N1798      N1800   1.316       .  A
N1798      N1799   1.317       .  A
N1799      C1806   1.347       .  A
N1800      N1801   1.324       .  A
N1801      C1806   1.354       .  A
N1802      N1803   1.317       .  A
N1802     Mn1816   2.188       .  S
N1803      C1805   1.346       .  A
Mn1804    Cl1817   2.572       .  S
C1805      C2009   1.434       .  S
C1806      C2011   1.434       .  S
N1807      N1808   1.325       .  A
N1807      N1813   1.316       .  A
N1808      C1818   1.355       .  A
N1809      N1810   1.318       .  A
N1809      N1811   1.316       .  A
N1809     Mn1816   2.194       .  S
N1810      C1819   1.348       .  A
N1811      N1812   1.323       .  A
N1811     Mn1815   2.205   1_554  S
N1812      C1819   1.353       .  A
N1813      N1814   1.318       .  A
N1814      C1818   1.347       .  A
Mn1815    Cl1817   2.571       .  S
Mn1816    Cl1817   2.524   1_554  S
C1818      C2016   1.438       .  S
C1819      C2014   1.434       .  S
N1820      C1825   1.355       .  A
N1820      C1824   1.354       .  A
N1820      H1852   1.036       .  S
N1821      C1828   1.353       .  A
N1821      C1829   1.353       .  A
N1822      C1827   1.353       .  A
N1822      C1826   1.353       .  A
N1822      H1853   1.038       .  S
N1823      C1830   1.351       .  A
N1823      C1831   1.350       .  A
C1824      C1832   1.387       .  A
C1824      C1840   1.416       .  A
C1825      C1841   1.418       .  A
C1825      C1833   1.388       .  A
C1826      C1834   1.387       .  A
C1826      C1843   1.412       .  A
C1827      C1842   1.414       .  A
C1827      C1835   1.389       .  A
C1828      C1840   1.416       .  A
C1828      C1836   1.387       .  A
C1829      C1843   1.414       .  A
C1829      C1837   1.386       .  A
C1830      C1838   1.386       .  A
C1830      C1841   1.412       .  A
C1831      C1839   1.387       .  A
C1831      C1842   1.410       .  A
C1832      C1833   1.376       .  A
C1832      H1844   1.082       .  S
C1833      H1845   1.082       .  S
C1834      C1835   1.374       .  A
C1834      H1846   1.083       .  S
C1835      H1847   1.082       .  S
C1836      C1837   1.375       .  A
C1836      H1848   1.082       .  S
C1837      H1849   1.082       .  S
C1838      C1839   1.372       .  A
C1838      H1850   1.082       .  S
C1839      H1851   1.082       .  S
C1840      C2006   1.455       .  S
C1841      C2018   1.454       .  S
C1842      C2020   1.446       .  S
C1843      C2007   1.452       .  S
N1854      C1859   1.352       .  A
N1854      C1858   1.353       .  A
N1854      H1886   1.035       .  S
N1855      C1862   1.353       .  A
N1855      C1863   1.352       .  A
N1856      C1861   1.355       .  A
N1856      C1860   1.353       .  A
N1856      H1887   1.034       .  S
N1857      C1864   1.351       .  A
N1857      C1865   1.353       .  A
C1858      C1866   1.387       .  A
C1858      C1874   1.413       .  A
C1859      C1875   1.414       .  A
C1859      C1867   1.388       .  A
C1860      C1868   1.388       .  A
C1860      C1877   1.418       .  A
C1861      C1876   1.418       .  A
C1861      C1869   1.388       .  A
C1862      C1874   1.414       .  A
C1862      C1870   1.386       .  A
C1863      C1877   1.414       .  A
C1863      C1871   1.388       .  A
C1864      C1872   1.388       .  A
C1864      C1875   1.415       .  A
C1865      C1873   1.386       .  A
C1865      C1876   1.413       .  A
C1866      C1867   1.375       .  A
C1866      H1878   1.082       .  S
C1867      H1879   1.082       .  S
C1868      C1869   1.377       .  A
C1868      H1880   1.082       .  S
C1869      H1881   1.082       .  S
C1870      C1871   1.370       .  A
C1870      H1882   1.082       .  S
C1871      H1883   1.082       .  S
C1872      C1873   1.371       .  A
C1872      H1884   1.082       .  S
C1873      H1885   1.082       .  S
C1874      C2022   1.453       .  S
C1875      C2023   1.447       .  S
C1876      C2004   1.455       .  S
C1877      C2002   1.450       .  S
N1888      N1889   1.322       .  A
N1888      N1894   1.314       .  A
N1888     Mn1917   2.201       .  S
N1889      C1896   1.352       .  A
N1890      N1892   1.315       .  A
N1890      N1891   1.317       .  A
N1891      C1897   1.347       .  A
N1892      N1893   1.323       .  A
N1893      C1897   1.353       .  A
N1894      N1895   1.317       .  A
N1894     Mn1906   2.187       .  S
N1895      C1896   1.348       .  A
C1896      C2036   1.431       .  S
C1897      C2033   1.432       .  S
N1898      N1904   1.315       .  A
N1898      N1899   1.324       .  A
N1899      C1907   1.354       .  A
N1900      N1901   1.317       .  A
N1900      N1902   1.315       .  A
N1901      C1908   1.347       .  A
N1902      N1903   1.324       .  A
N1902     Mn1928   2.214       .  S
N1903      C1908   1.355       .  A
N1904      N1905   1.318       .  A
N1905      C1907   1.348       .  A
Mn1906    Cl1930   2.541       .  S
C1907      C2037   1.435       .  S
C1908      C2040   1.435       .  S
N1909      N1910   1.319       .  A
N1909      N1915   1.317       .  A
N1910      C1918   1.349       .  A
N1911      N1913   1.317       .  A
N1911      N1912   1.322       .  A
N1911     Mn1929   2.219       .  S
N1912      C1919   1.354       .  A
N1913      N1914   1.320       .  A
N1913     Mn1917   2.202       .  S
N1914      C1919   1.351       .  A
N1915      N1916   1.321       .  A
N1916      C1918   1.354       .  A
Mn1917    Cl1930   2.549       .  S
C1918      C2001   1.434       .  S
C1919      C2005   1.441       .  S
N1920      N1921   1.319       .  A
N1920      N1926   1.317       .  A
N1920     Mn1928   2.195       .  S
N1921      C1931   1.349       .  A
N1922      N1923   1.322       .  A
N1922      N1924   1.318       .  A
N1923      C1932   1.354       .  A
N1924      N1925   1.320       .  A
N1925      C1932   1.351       .  A
N1926      N1927   1.322       .  A
N1927      C1931   1.354       .  A
Mn1929    Cl1930   2.544       .  S
C1931      C2008   1.437       .  S
C1932      C2003   1.440       .  S
N1933      C1938   1.356       .  A
N1933      C1937   1.358       .  A
N1933      H1965   1.037       .  S
N1934      C1941   1.352       .  A
N1934      C1942   1.352       .  A
N1935      C1940   1.352       .  A
N1935      C1939   1.351       .  A
N1935      H1966   1.038       .  S
N1936      C1943   1.351       .  A
N1936      C1944   1.352       .  A
C1937      C1945   1.388       .  A
C1937      C1953   1.423       .  A
C1938      C1954   1.422       .  A
C1938      C1946   1.388       .  A
C1939      C1947   1.387       .  A
C1939      C1956   1.411       .  A
C1940      C1955   1.410       .  A
C1940      C1948   1.387       .  A
C1941      C1953   1.413       .  A
C1941      C1949   1.386       .  A
C1942      C1956   1.414       .  A
C1942      C1950   1.387       .  A
C1943      C1951   1.388       .  A
C1943      C1954   1.411       .  A
C1944      C1952   1.387       .  A
C1944      C1955   1.412       .  A
C1945      C1946   1.381       .  A
C1945      H1957   1.082       .  S
C1946      H1958   1.082       .  S
C1947      C1948   1.376       .  A
C1947      H1959   1.082       .  S
C1948      H1960   1.082       .  S
C1949      C1950   1.373       .  A
C1949      H1961   1.082       .  S
C1950      H1962   1.082       .  S
C1951      C1952   1.371       .  A
C1951      H1963   1.082       .  S
C1952      H1964   1.082       .  S
C1953      C2032   1.462       .  S
C1954      C2029   1.455       .  S
C1955      C2012   1.449       .  S
C1956      C2010   1.450       .  S
N1967      C1972   1.358       .  A
N1967      C1971   1.357       .  A
N1967      H1999   1.039       .  S
N1968      C1975   1.351       .  A
N1968      C1976   1.352       .  A
N1969      C1974   1.352       .  A
N1969      C1973   1.352       .  A
N1969      H2000   1.038       .  S
N1970      C1977   1.352       .  A
N1970      C1978   1.353       .  A
C1971      C1979   1.388       .  A
C1971      C1987   1.421       .  A
C1972      C1988   1.422       .  A
C1972      C1980   1.387       .  A
C1973      C1981   1.387       .  A
C1973      C1990   1.411       .  A
C1974      C1989   1.412       .  A
C1974      C1982   1.387       .  A
C1975      C1987   1.411       .  A
C1975      C1983   1.387       .  A
C1976      C1990   1.413       .  A
C1976      C1984   1.387       .  A
C1977      C1985   1.386       .  A
C1977      C1988   1.412       .  A
C1978      C1986   1.387       .  A
C1978      C1989   1.414       .  A
C1979      C1980   1.380       .  A
C1979      H1991   1.082       .  S
C1980      H1992   1.082       .  S
C1981      C1982   1.377       .  A
C1981      H1993   1.082       .  S
C1982      H1994   1.082       .  S
C1983      C1984   1.372       .  A
C1983      H1995   1.082       .  S
C1984      H1996   1.082       .  S
C1985      C1986   1.373       .  A
C1985      H1997   1.082       .  S
C1986      H1998   1.082       .  S
C1987      C2028   1.458       .  S
C1988      C2025   1.462       .  S
C1989      C2015   1.453       .  S
C1990      C2013   1.449       .  S
C2001      C2002   1.206       .  T
C2003      C2004   1.209       .  T
C2005      C2006   1.209       .  T
C2007      C2008   1.207       .  T
C2009      C2010   1.205       .  T
C2011      C2012   1.205       .  T
C2013      C2014   1.205       .  T
C2015      C2016   1.208       .  T
C2017      C2018   1.208       .  T
C2019      C2020   1.203       .  T
C2021      C2022   1.207       .  T
C2023      C2024   1.204       .  T
C2025      C2026   1.213       .  T
C2027      C2028   1.211       .  T
C2029      C2030   1.209       .  T
C2031      C2032   1.214       .  T
C2033      C2034   1.204       .  T
C2035      C2036   1.204       .  T
C2037      C2038   1.206       .  T
C2039      C2040   1.206       .  T
C2041      C2042   1.206       .  T
C2043      C2044   1.204       .  T
C2045      C2046   1.206       .  T
C2047      C2048   1.204       .  T
C2049      C2050   1.215       .  T
C2051      C2052   1.212       .  T
C2053      C2054   1.208       .  T
C2055      C2056   1.208       .  T
C2057      C2058   1.214       .  T
C2059      C2060   1.213       .  T
C2061      C2062   1.204       .  T
C2063      C2064   1.206       .  T
