geometry optimzed in LAMMPS
_audit_creation_date              2020-11-30 
_audit_creation_method            'lammps2cif' 
_symmetry_space_group_name_H-M    'P1' 
_symmetry_Int_Tables_number       1 
_symmetry_cell_setting            triclinic 
loop_ 
_symmetry_equiv_pos_as_xyz 
  x,y,z 
_cell_length_a                    38.32489171 
_cell_length_b                    38.32480051014554 
_cell_length_c                    44.727273449250035 
_cell_angle_alpha                 89.99882139485578 
_cell_angle_beta                  90.00390375471326 
_cell_angle_gamma                 120.00348514244853 
loop_ 
_atom_site_label 
_atom_site_type_symbol 
_atom_site_fract_x 
_atom_site_fract_y 
_atom_site_fract_z 
_atom_site_charge 
C1          C  0.30116281  0.49826126  0.71086995     0.79500
N2          N  0.33592673  0.00995046  0.69568889    -0.78800
C3          C  0.37102249  0.04177893  0.70501876     0.82000
N4          N  0.37159360  0.06257941  0.72969792    -0.78700
C5          C  0.33717836  0.05182898  0.74495469     0.82100
N6          N  0.30184269  0.01925714  0.73568826    -0.80400
C7          C  0.05157682  0.13202357  0.67705294     0.79500
N8          N  0.05008427  0.11130358  0.65183954    -0.78800
C9          C  0.01441495  0.07904057  0.64270297     0.82000
N10         N  0.48049614  0.06827581  0.65845519    -0.78700
C11         C  0.48172777  0.08888034  0.68345006     0.82100
N12         N  0.01710156  0.12055268  0.69261133    -0.80400
C13         C  0.28629915  0.46854458  0.84174868     0.79500
N14         N  0.26626144  0.44772128  0.81678867    -0.78800
C15         C  0.26908596  0.41518461  0.80758045     0.82000
N16         N  0.29256599  0.40434588  0.82295050    -0.78700
C17         C  0.31262898  0.42505845  0.84767991     0.82100
N18         N  0.30935736  0.45688664  0.85697201    -0.80400
C19         C  0.40217182  0.33418403  0.87589452     0.79500
N20         N  0.37917910  0.34564154  0.86029424    -0.78800
C21         C  0.37545512  0.37732307  0.86939114     0.82000
N22         N  0.39494294  0.39803806  0.89429409    -0.78700
C23         C  0.41824518  0.38735320  0.91001034     0.82100
N24         N  0.42150895  0.35499889  0.90100500    -0.80400
C25         C  0.45432196  0.30126067  0.50795445     0.79500
N26         N  0.43399062  0.28017883  0.48317139    -0.78800
C27         C  0.43736099  0.24806041  0.47368927     0.82000
N28         N  0.46174547  0.23794517  0.48858544    -0.78700
C29         C  0.48215677  0.25898304  0.51312127     0.82100
N30         N  0.47827462  0.29033525  0.52271218    -0.80400
C31         C  0.06964023  0.16671856  0.54233325     0.79500
N32         N  0.04783848  0.17909086  0.52616949    -0.78800
C33         C  0.04463580  0.21115329  0.53504319     0.82000
N34         N  0.06336088  0.23127360  0.56034054    -0.78700
C35         C  0.08545389  0.21968117  0.57667986     0.82100
N36         N  0.08829338  0.18700471  0.56782981    -0.80400
C37         C  0.38559968  0.29922702  0.01053526     0.79500
N38         N  0.35134949  0.28711992  0.02657020    -0.78800
C39         C  0.31607295  0.25505167  0.01768377     0.82000
N40         N  0.31476706  0.23472651  0.99255107    -0.78700
C41         C  0.34850993  0.24610393  0.97638210     0.82100
N42         N  0.38401832  0.27874340  0.98520253    -0.80400
C43         C  0.13538123  0.16458700  0.04419651     0.79500
N44         N  0.13606044  0.18562211  0.06896267    -0.78800
C45         C  0.17151077  0.21772674  0.07846461     0.82000
N46         N  0.20602722  0.22792153  0.06362363    -0.78700
C47         C  0.20549869  0.20695752  0.03910499     0.82100
N48         N  0.17030584  0.17555659  0.02947079    -0.80400
C49         C  0.46808164  0.33087130  0.37759745     0.79500
N50         N  0.46891028  0.35148478  0.40266509    -0.78800
C51         C  0.50418313  0.38414914  0.41179083     0.82000
N52         N  0.03844104  0.39536240  0.39620845    -0.78700
C53         C  0.03776305  0.37486480  0.37132278     0.82100
N54         N  0.50269321  0.34290764  0.36211968    -0.80400
C55         C  0.21835234  0.46535766  0.34306014     0.79500
N56         N  0.18384281  0.45408743  0.35852629    -0.78800
C57         C  0.14836685  0.42258734  0.34932229     0.82000
N58         N  0.14713870  0.40182000  0.32443453    -0.78700
C59         C  0.18119774  0.41230321  0.30883957     0.82100
N60         N  0.21687447  0.44451378  0.31795930    -0.80400
C61         C  0.12015945  0.13449579  0.17474711     0.79500
N62         N  0.10016248  0.11376851  0.14979006    -0.78800
C63         C  0.10293206  0.08125014  0.14055126     0.82000
N64         N  0.12632526  0.07025964  0.15590509    -0.78700
C65         C  0.14635543  0.09088108  0.18068327     0.82100
N66         N  0.14313818  0.12274412  0.18998995    -0.80400
C67         C  0.23585521  0.99989582  0.20909480     0.79500
N68         N  0.25515153  0.02070176  0.23423190    -0.78800
C69         C  0.25181257  0.05301402  0.24327196     0.82000
N70         N  0.22846903  0.06365552  0.22754696    -0.78700
C71         C  0.20901249  0.04294545  0.20262197     0.82100
N72         N  0.21281976  0.01131497  0.19350802    -0.80400
C73         C  0.02448339  0.27527411  0.84160824     0.79500
N74         N  0.04532007  0.27589145  0.81672886    -0.78800
C75         C  0.07779484  0.31119347  0.80740222     0.82000
N76         N  0.08859694  0.34564946  0.82258006    -0.78700
C77         C  0.06786005  0.34515659  0.84724723     0.82100
N78         N  0.03606319  0.31010264  0.85664761    -0.80400
C79         C  0.15925411  0.02551769  0.87587282     0.79500
N80         N  0.14788367  0.49111779  0.86018137    -0.78800
C81         C  0.11617755  0.45567894  0.86920478     0.82000
N82         N  0.09545201  0.45435722  0.89412346    -0.78700
C83         C  0.10610479  0.98826758  0.90996284     0.82100
N84         N  0.13847737  0.02391879  0.90103430    -0.80400
C85         C  0.36013349  0.37563636  0.67711228     0.79500
N86         N  0.38063290  0.39450255  0.65175880    -0.78800
C87         C  0.41291559  0.39111444  0.64272063     0.82000
N88         N  0.42386623  0.36823392  0.65868304    -0.78700
C89         C  0.40351555  0.34926848  0.68382898     0.82100
N90         N  0.37186322  0.35303498  0.69293371    -0.80400
C91         C  0.49496733  0.26041311  0.71164766     0.79500
N92         N  0.48366731  0.28387886  0.69659894    -0.78800
C93         C  0.45208539  0.28748674  0.70602774     0.82000
N94         N  0.43128740  0.26739511  0.73070599    -0.78700
C95         C  0.44180670  0.24356111  0.74589124     0.82100
N96         N  0.47407008  0.24035836  0.73655830    -0.80400
C97         C  0.19121906  0.10709827  0.50843436     0.79500
N98         N  0.20282418  0.14182053  0.52363552    -0.78800
C99         C  0.23457782  0.17696490  0.51432224     0.82000
N100        N  0.25532379  0.17763467  0.48959111    -0.78700
C101        C  0.24457897  0.14327399  0.47426648     0.82100
N102        N  0.21207740  0.10789609  0.48349583    -0.80400
C103        C  0.32550776  0.35738198  0.54279607     0.79500
N104        N  0.30488813  0.35590386  0.56803347    -0.78800
C105        C  0.27246972  0.32032777  0.57706649     0.82000
N106        N  0.26152426  0.28635051  0.56121860    -0.78700
C107        C  0.28204447  0.28757836  0.53618061     0.82100
N108        N  0.31377787  0.32296223  0.52708441    -0.80400
C109        C  0.19361600  0.04249118  0.01005149     0.79500
N110        N  0.21444407  0.06184505  0.98495460    -0.78800
C111        C  0.24676816  0.05854555  0.97593588     0.82000
N112        N  0.25741785  0.03519559  0.99163024    -0.78700
C113        C  0.23669392  0.01568235  0.01652498     0.82100
N114        N  0.20502611  0.01943497  0.02562881    -0.80400
C115        C  0.32807844  0.42646320  0.04384122     0.79500
N116        N  0.30732930  0.40634911  0.06877019    -0.78800
C117        C  0.27479941  0.40907730  0.07805688     0.82000
N118        N  0.26383637  0.43254401  0.06277466    -0.78700
C119        C  0.28447216  0.45268230  0.03803488     0.82100
N120        N  0.31634303  0.44951353  0.02868427    -0.80400
C121        C  0.16147182  0.09254014  0.37763748     0.79500
N122        N  0.15007562  0.11589963  0.36253849    -0.78800
C123        C  0.11842538  0.11944571  0.37189413     0.82000
N124        N  0.09754638  0.09926225  0.39655569    -0.78700
C125        C  0.10807535  0.07541362  0.41178902     0.82100
N126        N  0.14049540  0.07239799  0.40252364    -0.80400
C127        C  0.02735108  0.20867612  0.34320880     0.79500
N128        N  0.03931741  0.18630241  0.35908179    -0.78800
C129        C  0.07109126  0.18270340  0.35002273     0.82000
N130        N  0.09141544  0.20172304  0.32485381    -0.78700
C131        C  0.08026363  0.22445233  0.30883212     0.82100
N132        N  0.04780443  0.22757659  0.31783765    -0.80400
C133        C  0.49253345  0.19179469  0.20866125     0.79500
N134        N  0.47193315  0.19037271  0.23392464    -0.78800
C135        C  0.43960292  0.15476386  0.24305364     0.82000
N136        N  0.42875049  0.12078542  0.22728689    -0.78700
C137        C  0.44921447  0.12196067  0.20225563     0.82100
N138        N  0.48086408  0.15732157  0.19304994    -0.80400
C139        C  0.35866501  0.44141597  0.17514616     0.79500
N140        N  0.37014306  0.47615434  0.19030019    -0.78800
C141        C  0.40173521  0.01131968  0.18089987     0.82000
N142        N  0.42249039  0.01200529  0.15618927    -0.78700
C143        C  0.41192611  0.47769020  0.14093737     0.82100
N144        N  0.37953800  0.44227049  0.15021121    -0.80400
C145        C  0.28293760  0.27327918  0.34387404     0.79500
N146        N  0.30493723  0.30753888  0.35992503    -0.78800
C147        C  0.30819372  0.34282064  0.35098865     0.82000
N148        N  0.28927141  0.34412602  0.32577443    -0.78700
C149        C  0.26696514  0.31036820  0.30955762     0.82100
N150        N  0.26411912  0.27485514  0.31844548    -0.80400
C151        C  0.39928271  0.02358371  0.37748477     0.79500
N152        N  0.37558049  0.48871529  0.36263233    -0.78800
C153        C  0.37171114  0.45349218  0.37227977     0.82000
N154        N  0.39191324  0.45289586  0.39695276    -0.78700
C155        C  0.41606767  0.98738102  0.41191729     0.82100
N156        N  0.41943715  0.02284052  0.40237522    -0.80400
C157        C  0.23339303  0.19144580  0.71076809     0.79500
N158        N  0.25311694  0.19064175  0.73586357    -0.78800
C159        C  0.25058189  0.15541578  0.74498210     0.82000
N160        N  0.22771156  0.12115431  0.72934373    -0.78700
C161        C  0.20797029  0.12180326  0.70440868     0.82100
N162        N  0.21093120  0.15683428  0.69524026    -0.80400
C163        C  0.11754554  0.44102590  0.67660998     0.79500
N164        N  0.09808136  0.44241767  0.65154888    -0.78800
C165        C  0.10163431  0.47808386  0.64234220     0.82000
N166        N  0.12546800  0.01225513  0.65777439    -0.78700
C167        C  0.14513572  0.01111909  0.68260854     0.82100
N168        N  0.14099389  0.47561276  0.69194628    -0.80400
C169        C  0.38420367  0.03878127  0.50858610     0.79500
N170        N  0.34944791  0.01587705  0.52382957    -0.78800
C171        C  0.31438021  0.01265343  0.51444740     0.82000
N172        N  0.31383062  0.03260606  0.48960933    -0.78700
C173        C  0.34821904  0.05594519  0.47424726     0.82100
N174        N  0.38349674  0.05871808  0.48356092    -0.80400
C175        C  0.13371638  0.42262263  0.54238579     0.79500
N176        N  0.16814808  0.44555114  0.52673598    -0.78800
C177        C  0.20358371  0.44933009  0.53584354     0.82000
N178        N  0.20484427  0.42994514  0.56079686    -0.78700
C179        C  0.17089632  0.40670139  0.57656842     0.82100
N180        N  0.13524962  0.40339021  0.56755451    -0.80400
C181        C  0.30142080  0.25693937  0.20918615     0.79500
N182        N  0.33595010  0.28008563  0.19374090    -0.78800
C183        C  0.37140260  0.28416034  0.20307336     0.82000
N184        N  0.37260242  0.26480852  0.22808502    -0.78700
C185        C  0.33851508  0.24129595  0.24368097     0.82100
N186        N  0.30284283  0.23773558  0.23441968    -0.80400
C187        C  0.05166564  0.37299435  0.17475970     0.79500
N188        N  0.05082167  0.39309408  0.14985204    -0.78800
C189        C  0.01551366  0.39057868  0.14083990     0.82000
N190        N  0.48123547  0.36733053  0.15637898    -0.78700
C191        C  0.48194802  0.34721277  0.18108282     0.82100
N192        N  0.01703825  0.35018893  0.19015405    -0.80400
C193        C  0.45026358  0.10801853  0.01023310     0.79500
N194        N  0.43084777  0.10948706  0.98514016    -0.78800
C195        C  0.43413873  0.14513089  0.97611597     0.82000
N196        N  0.45754228  0.17911839  0.99179427    -0.78700
C197        C  0.47709258  0.17789653  0.01666087     0.82100
N198        N  0.47333801  0.14248917  0.02577984    -0.80400
C199        C  0.06691037  0.35839319  0.04387846     0.79500
N200        N  0.08710767  0.35764887  0.06876586    -0.78800
C201        C  0.08444142  0.32232336  0.07790894     0.82000
N202        N  0.06095630  0.28800047  0.06255046    -0.78700
C203        C  0.04075027  0.28861242  0.03789569     0.82100
N204        N  0.04386337  0.32366917  0.02866708    -0.80400
C205        C  0.21759923  0.20634951  0.84210485     0.79500
N206        N  0.18260658  0.18232152  0.85672549    -0.78800
C207        C  0.14744224  0.17852118  0.84701323     0.82000
N208        N  0.14701567  0.19903074  0.82249485    -0.78700
C209        C  0.18162175  0.22345863  0.80775234     0.82100
N210        N  0.21703005  0.22679344  0.81734919    -0.80400
C211        C  0.46724086  0.09020216  0.87547040     0.79500
N212        N  0.46881568  0.07119431  0.90076633    -0.78800
C213        C  0.50435873  0.07412521  0.90962143     0.82000
N214        N  0.03809586  0.09657277  0.89346961    -0.78700
C215        C  0.03677875  0.11567257  0.86837144     0.82100
N216        N  0.50153318  0.11250209  0.85951450    -0.80400
O217        O  0.37336018  0.10041002  0.78311309    -0.80800
O218        O  0.21499416  0.09033241  0.88784994    -0.82400
O219        O  0.27616950  0.02381956  0.83119622    -0.79400
O220        O  0.26253153  0.11932661  0.78325464    -0.77800
O221        O  0.29894806  0.18835197  0.78211612    -0.79600
O222        O  0.31079201  0.02503003  0.87330284    -0.80500
O223        O  0.21611509  0.05841192  0.84483735    -0.81800
O224        O  0.30435829  0.06788362  0.78193194    -0.82100
Eu225      Eu  0.28522834  0.09204071  0.82515447     2.39200
O226        O  0.28479926  0.14925457  0.84274494    -0.89600
O227        O  0.34383527  0.09298754  0.84256095    -0.93200
C228        C  0.33852545  0.07485481  0.77170807     1.01500
C229        C  0.19855270  0.06122254  0.86862944     1.01300
C230        C  0.28998671  0.00766493  0.84961412     1.01200
C231        C  0.27188206  0.15413813  0.77185911     0.99100
H232        H  0.26470281  0.06623678  0.88544724     0.28800
O233        O  0.28639322  0.09126685  0.87784591    -1.02000
H234        H  0.34290404  0.15039766  0.78615701     0.28900
O235        O  0.34287292  0.15034038  0.80773987    -1.04600
O236        O  0.31156710  0.19782793  0.93805828    -0.81800
O237        O  0.46922539  0.20979229  0.83115555    -0.81300
O238        O  0.29527787  0.07040669  0.93769701    -0.79800
O239        O  0.28318612  0.21706500  0.83164239    -0.83100
O240        O  0.39305918  0.23109228  0.78377964    -0.81000
O241        O  0.40267370  0.08170592  0.88756996    -0.79600
O242        O  0.42247929  0.18195374  0.93781288    -0.81100
O243        O  0.41131219  0.27841416  0.88772947    -0.83100
O244        O  0.38702785  0.11285460  0.93843617    -0.79800
O245        O  0.37779454  0.27717352  0.84495616    -0.82500
O246        O  0.26164072  0.10586149  0.93844602    -0.78200
O247        O  0.43469189  0.11496674  0.84466519    -0.78200
O248        O  0.42526618  0.19428857  0.78234456    -0.77900
O249        O  0.24986273  0.18228729  0.87373921    -0.81400
O250        O  0.38067825  0.23183913  0.93838373    -0.80800
O251        O  0.46807070  0.24331489  0.87321651    -0.79100
Eu252      Eu  0.28416683  0.14849958  0.89523645     2.39800
Eu253      Eu  0.40100691  0.15058348  0.82512321     2.39600
Eu254      Eu  0.34474995  0.09303497  0.89503205     2.38400
Eu255      Eu  0.34231216  0.20801068  0.82529314     2.39900
Eu256      Eu  0.40020246  0.20914963  0.89505268     2.39800
O257        O  0.39984579  0.20815050  0.84261589    -0.93500
O258        O  0.34310377  0.15023295  0.91196853    -0.92400
C259        C  0.34652236  0.22372223  0.94921762     1.01600
C260        C  0.48536848  0.23983354  0.84951844     1.00300
C261        C  0.26948217  0.07947454  0.94899994     0.99700
C262        C  0.25321088  0.20307040  0.85006630     1.01800
C263        C  0.41856807  0.22175729  0.77239244     1.00700
C264        C  0.43177034  0.09434082  0.86835143     0.99500
C265        C  0.41334171  0.14703707  0.94909819     0.99600
C266        C  0.39845162  0.29482260  0.86863069     1.02200
H267        H  0.42705734  0.15580221  0.88537425     0.29600
O268        O  0.40205102  0.15257223  0.87780881    -1.05700
H269        H  0.33732908  0.22866152  0.88565856     0.31600
O270        O  0.34061309  0.20696500  0.87798777    -1.08300
O271        O  0.43009610  0.43586163  0.94825675    -0.80800
O272        O  0.07689160  0.42373899  0.05455023    -0.82400
O273        O  0.05754927  0.45143602  0.94812394    -0.79400
O274        O  0.45006469  0.35529021  0.99834934    -0.77800
O275        O  0.41810608  0.35647752  0.04131442    -0.79600
O276        O  0.09122834  0.02053992  0.94755515    -0.80500
O277        O  0.04201537  0.39030399  0.01253482    -0.81800
O278        O  0.46545725  0.40212495  0.94755542    -0.82100
Eu279      Eu  0.00805956  0.42446014  0.99082667     2.39200
O280        O  0.50881449  0.42514531  0.04327002    -0.89600
O281        O  0.00972506  0.48336323  0.97397468    -0.93200
C282        C  0.43913702  0.41003884  0.93696713     1.01500
C283        C  0.06299395  0.39376487  0.03613808     1.01300
C284        C  0.08338589  0.48634574  0.93688372     1.01200
C285        C  0.42101916  0.33882135  0.01761027     0.99100
H286        H  0.08816020  0.47765849  0.00032484     0.28800
O287        O  0.06647499  0.48097931  0.00796365    -1.02000
H288        H  0.42584577  0.40508559  0.00058290     0.28900
O289        O  0.45086276  0.42684776  0.00814627    -1.04600
O290        O  0.09057919  0.03293619  0.10241992    -0.81800
O291        O  0.44129879  0.04320803  0.99833470    -0.81300
O292        O  0.13787183  0.05163433  0.99816158    -0.79800
O293        O  0.47920901  0.40296686  0.10275942    -0.83100
O294        O  0.38345665  0.41655644  0.05452448    -0.81000
O295        O  0.04130377  0.06263508  0.94795503    -0.79600
O296        O  0.06971788  0.10977932  0.05465363    -0.81100
O297        O  0.46017021  0.01399433  0.10275153    -0.83100
O298        O  0.10298020  0.10841444  0.01249243    -0.79800
O299        O  0.42789384  0.44501010  0.10399915    -0.82500
O300        O  0.13665082  0.01824778  0.04100608    -0.78200
O301        O  0.47220178  0.02753010  0.94760697    -0.78200
O302        O  0.38466806  0.45126086  0.01246333    -0.77900
O303        O  0.04823672  0.43932609  0.10381954    -0.81400
O304        O  0.05407216  0.06544927  0.10378619    -0.80800
O305        O  0.47476497  0.07536787  0.04114807    -0.79100
Eu306      Eu  0.06754820  0.48270622  0.06064831     2.39800
Eu307      Eu  0.45266389  0.48526869  0.99095363     2.39600
Eu308      Eu  0.06862494  0.04050462  0.99077283     2.38400
Eu309      Eu  0.45171141  0.42570619  0.06082448     2.39900
Eu310      Eu  0.01038360  0.04168664  0.06082369     2.39800
O311        O  0.45269007  0.48440550  0.04343662    -0.93500
O312        O  0.06777239  0.04029158  0.04324646    -0.92400
C313        C  0.08130189  0.05842713  0.11385798     1.01600
C314        C  0.45409170  0.07240690  0.01747440     1.00300
C315        C  0.15428166  0.03882869  0.01730473     0.99700
C316        C  0.51406093  0.41221314  0.11409536     1.01800
C317        C  0.36729173  0.43035256  0.03608697     1.00700
C318        C  0.00634963  0.05359084  0.93678023     0.99500
C319        C  0.09969815  0.12576621  0.03622971     0.99600
C320        C  0.43483362  0.47916416  0.11418049     1.02200
H321        H  0.01550861  0.06761586  0.00050262     0.29600
O322        O  0.01223982  0.04261640  0.00812075    -1.05700
H323        H  0.01004837  0.48346831  0.09974236     0.31600
O324        O  0.00998631  0.48346400  0.07816076    -1.08300
O325        O  0.42452275  0.19912570  0.43581175    -0.80800
O326        O  0.27455753  0.20870996  0.33191349    -0.82400
O327        O  0.40278915  0.27544089  0.38832442    -0.79400
O328        O  0.29325336  0.17956343  0.43628575    -0.77800
O329        O  0.26076186  0.11054189  0.43734166    -0.79600
O330        O  0.43621533  0.27425379  0.34621496    -0.80500
O331        O  0.30800136  0.24090596  0.37473231    -0.81800
O332        O  0.38770143  0.23130654  0.43734110    -0.82100
Eu333      Eu  0.34364077  0.20717624  0.39451004     2.39200
O334        O  0.28611525  0.14991976  0.37690699    -0.89600
O335        O  0.40113970  0.20597688  0.37690795    -0.93200
C336        C  0.41525993  0.22465872  0.44724683     1.01500
C337        C  0.28724688  0.23788298  0.35106859     1.01300
C338        C  0.43274395  0.29161086  0.36987909     1.01200
C339        C  0.26766294  0.14468707  0.44757856     0.99100
H340        H  0.34874139  0.23309418  0.33429402     0.28800
O341        O  0.34552390  0.20808062  0.34182254    -1.02000
H342        H  0.34329817  0.14882649  0.43337006     0.28900
O343        O  0.34327307  0.14886851  0.41178582    -1.04600
O344        O  0.26359551  0.10149784  0.28160319    -0.81800
O345        O  0.41004191  0.08923408  0.38794669    -0.81300
O346        O  0.37513403  0.22920466  0.28189479    -0.79800
O347        O  0.21668568  0.08216949  0.38816178    -0.83100
O348        O  0.31217535  0.06814279  0.43602407    -0.81000
O349        O  0.47139552  0.21756221  0.33160084    -0.79600
O350        O  0.39122541  0.11787946  0.28141484    -0.81100
O351        O  0.28339122  0.02109644  0.33132398    -0.83100
O352        O  0.42492190  0.18697654  0.28095173    -0.79800
O353        O  0.25128843  0.02208950  0.37427690    -0.82500
O354        O  0.30604433  0.19395151  0.28130731    -0.78200
O355        O  0.47027598  0.18395929  0.37429385    -0.78200
O356        O  0.38119701  0.10472954  0.43730886    -0.77900
O357        O  0.21799044  0.11691703  0.34610088    -0.81400
O358        O  0.29908697  0.06789529  0.28084210    -0.80800
O359        O  0.37527456  0.05594903  0.34583195    -0.79100
Eu360      Eu  0.28604229  0.15089613  0.32440183     2.39800
Eu361      Eu  0.40108041  0.14844342  0.39423323     2.39600
Eu362      Eu  0.40210970  0.20636874  0.32441994     2.38400
Eu363      Eu  0.28495323  0.09117231  0.39423730     2.39900
Eu364      Eu  0.34161949  0.09035491  0.32414029     2.39800
O365        O  0.34231146  0.09101741  0.37664482    -0.93500
O366        O  0.34323720  0.14927354  0.30736393    -0.92400
C367        C  0.27269846  0.07572700  0.27026740     1.01600
C368        C  0.39602396  0.05924637  0.36952652     1.00300
C369        C  0.34026170  0.22030404  0.27067607     0.99700
C370        C  0.20058216  0.09609122  0.36977450     1.01800
C371        C  0.34698026  0.07748521  0.44745538     1.00700
C372        C  0.48788595  0.20469116  0.35060997     0.99500
C373        C  0.41704175  0.15283638  0.27018853     0.99600
C374        C  0.25416086  0.00459764  0.35045001     1.02200
H375        H  0.42168423  0.14355835  0.33382735     0.29600
O376        O  0.39998393  0.14681743  0.34151486    -1.05700
H377        H  0.25932037  0.07085070  0.33387094     0.31600
O378        O  0.28432286  0.09251576  0.34153226    -1.08300
O379        O  0.23570486  0.44290806  0.72142849    -0.80800
O380        O  0.22389252  0.28379034  0.61536986    -0.82400
O381        O  0.30428491  0.38451190  0.66521250    -0.79400
O382        O  0.20777295  0.39523265  0.61491084    -0.77800
O383        O  0.13866379  0.35980747  0.61437827    -0.79600
O384        O  0.30322134  0.35150084  0.70823259    -0.80500
O385        O  0.25776065  0.35288383  0.61467360    -0.81800
O386        O  0.26921624  0.44145420  0.67945845    -0.82100
Eu387      Eu  0.23507829  0.37325995  0.65777450     2.39200
O388        O  0.17617096  0.31592636  0.64101593    -0.89600
O389        O  0.23429867  0.37341305  0.71026271    -0.93200
C390        C  0.26572936  0.45898851  0.70305051     1.01500
C391        C  0.24981648  0.31862304  0.60408212     1.01300
C392        C  0.32077658  0.37190869  0.68442896     1.01200
C393        C  0.17283396  0.38605492  0.60365190     0.99100
H394        H  0.25452864  0.31052945  0.66772592     0.28800
O395        O  0.23278685  0.31381444  0.67528341    -1.02000
H396        H  0.18179192  0.39999656  0.66724542     0.28900
O397        O  0.17848462  0.37502528  0.67494853    -1.04600
O398        O  0.11659086  0.18777596  0.66543907    -0.81800
O399        O  0.12627949  0.34716543  0.76932215    -0.81300
O400        O  0.24295083  0.25660751  0.72163752    -0.79800
O401        O  0.09674819  0.26798376  0.61508859    -0.83100
O402        O  0.10804940  0.37592588  0.66499738    -0.81000
O403        O  0.25674887  0.36649153  0.76963627    -0.79600
O404        O  0.14559431  0.23579692  0.76966461    -0.81100
O405        O  0.04983127  0.24956847  0.72199885    -0.83100
O406        O  0.21459977  0.27263806  0.77113177    -0.79800
O407        O  0.05111864  0.28417083  0.67984930    -0.82500
O408        O  0.20854038  0.22320692  0.67945567    -0.78200
O409        O  0.22021731  0.39897411  0.77067991    -0.78200
O410        O  0.14125974  0.40814092  0.70788294    -0.77900
O411        O  0.13194877  0.23409032  0.61479988    -0.81400
O412        O  0.08420753  0.18912276  0.70810792    -0.80800
O413        O  0.09397074  0.27815512  0.77083153    -0.79100
Eu414      Eu  0.17444151  0.25711046  0.65808422     2.39800
Eu415      Eu  0.17671808  0.37454038  0.72764557     2.39600
Eu416      Eu  0.23400678  0.31591475  0.72795755     2.38400
Eu417      Eu  0.11893876  0.31760635  0.65780988     2.39900
Eu418      Eu  0.11797708  0.25842031  0.72789846     2.39800
O419        O  0.11920580  0.31709748  0.71027398    -0.93500
O420        O  0.17533742  0.25816492  0.71058933    -0.92400
C421        C  0.08725170  0.17139766  0.68446097     1.01600
C422        C  0.10081012  0.31238919  0.78080028     1.00300
C423        C  0.22933620  0.22671094  0.70312709     0.99700
C424        C  0.10582029  0.24208165  0.60393811     1.01800
C425        C  0.12085891  0.40521251  0.68408243     1.00700
C426        C  0.24746214  0.39209718  0.78090761     0.99500
C427        C  0.18039914  0.24524623  0.78115299     0.99600
C428        C  0.03380295  0.26356198  0.70361871     1.02200
H429        H  0.17618428  0.31646005  0.76688120     0.29600
O430        O  0.17618789  0.31635451  0.74529833    -1.05700
H431        H  0.09207830  0.23750081  0.66760290     0.31600
O432        O  0.11706495  0.25925514  0.67521152    -1.08300
O433        O  0.20763106  0.26628745  0.11644340    -0.80800
O434        O  0.04852254  0.25660390  0.22043026    -0.82400
O435        O  0.11013441  0.18982536  0.16405959    -0.79400
O436        O  0.09665743  0.28596746  0.11596729    -0.77800
O437        O  0.13325516  0.35498869  0.11484275    -0.79600
O438        O  0.14464174  0.19094341  0.20621742    -0.80500
O439        O  0.04975058  0.22438429  0.17762607    -0.81800
O440        O  0.13861349  0.23409536  0.11491577    -0.82100
Eu441      Eu  0.11905719  0.25805330  0.15786328     2.39200
O442        O  0.11872624  0.31528936  0.17533651    -0.89600
O443        O  0.17778627  0.25918057  0.17537516    -0.93200
C444        C  0.17281894  0.24086603  0.10497528     1.01500
C445        C  0.03207311  0.22739852  0.20131390     1.01300
C446        C  0.12390178  0.17364258  0.18251752     1.01200
C447        C  0.10602974  0.32085618  0.10461615     0.99100
H448        H  0.09828166  0.23207953  0.21808031     0.28800
O449        O  0.12006807  0.25708446  0.21052782    -1.02000
H450        H  0.17705251  0.31636181  0.11903724     0.28900
O451        O  0.17699446  0.31631941  0.14061947    -1.04600
O452        O  0.14458789  0.36375202  0.27055140    -0.81800
O453        O  0.30346656  0.37599058  0.16438995    -0.81300
O454        O  0.12879552  0.23622716  0.27051998    -0.79800
O455        O  0.11708248  0.38297210  0.16407021    -0.83100
O456        O  0.22656811  0.39683581  0.11625046    -0.81000
O457        O  0.23637758  0.24755448  0.22065364    -0.79600
O458        O  0.25574062  0.34736077  0.27106255    -0.81100
O459        O  0.24504978  0.44417473  0.22085916    -0.83100
O460        O  0.22059373  0.27825916  0.27134176    -0.79800
O461        O  0.21191051  0.44314338  0.17791989    -0.82500
O462        O  0.09488697  0.27140739  0.27097383    -0.78200
O463        O  0.26882651  0.28117153  0.17795490    -0.78200
O464        O  0.25904545  0.36029459  0.11495960    -0.77900
O465        O  0.08362313  0.34818918  0.20610174    -0.81400
O466        O  0.21368172  0.39736522  0.27136026    -0.80800
O467        O  0.30206252  0.40916138  0.20659021    -0.79100
Eu468      Eu  0.11780093  0.31433130  0.22782285     2.39800
Eu469      Eu  0.23523922  0.31678110  0.15809495     2.39600
Eu470      Eu  0.17841134  0.25884939  0.22786943     2.38400
Eu471      Eu  0.17640446  0.37402741  0.15806545     2.39900
Eu472      Eu  0.23392311  0.37489672  0.22813934     2.39800
O473        O  0.23396305  0.37425286  0.17562388    -0.93500
O474        O  0.17662720  0.31594952  0.24481109    -0.92400
C475        C  0.17943931  0.38954376  0.28189286     1.01600
C476        C  0.31952500  0.40587891  0.18290055     1.00300
C477        C  0.10284041  0.24517297  0.28171009     0.99700
C478        C  0.08707140  0.36908940  0.18246782     1.01800
C479        C  0.25202287  0.38749883  0.10481209     1.00700
C480        C  0.26573827  0.26048812  0.20165649     0.99500
C481        C  0.24663894  0.31238756  0.28225110     0.99600
C482        C  0.23235001  0.46067749  0.20171028     1.02200
H483        H  0.26080390  0.32167681  0.21849605     0.29600
O484        O  0.23584622  0.31842266  0.21080245    -1.05700
H485        H  0.17114139  0.39443538  0.21837377     0.31600
O486        O  0.17446446  0.37275003  0.21074177    -1.08300
O487        O  0.47773611  0.03026579  0.60443193    -0.80800
O488        O  0.13591769  0.04166102  0.49783920    -0.82400
O489        O  0.08950798  0.01463750  0.60416719    -0.79400
O490        O  0.07800051  0.11054782  0.55424384    -0.77800
O491        O  0.04460236  0.10940282  0.51142316    -0.79600
O492        O  0.05399894  0.44550192  0.60497947    -0.80500
O493        O  0.13453709  0.07521833  0.53980289    -0.81800
O494        O  0.04672682  0.06416498  0.60492367    -0.82100
Eu495      Eu  0.06655849  0.04129660  0.56160878     2.39200
O496        O  0.06641680  0.04036143  0.50910880    -0.89600
O497        O  0.00940659  0.48240010  0.57872693    -0.93200
C498        C  0.01254817  0.05629491  0.61563959     1.01500
C499        C  0.15200839  0.07168312  0.51621548     1.01300
C500        C  0.08048224  0.47975595  0.61547439     1.01200
C501        C  0.06533305  0.12706019  0.53510790     0.99100
H502        H  0.09334021  0.98794145  0.55198696     0.28800
O503        O  0.06829876  0.48461430  0.54439884    -1.02000
H504        H  0.00383688  0.06078680  0.55188798     0.28900
O505        O  0.00705049  0.03901815  0.54429147    -1.04600
O506        O  0.04026748  0.43245671  0.44993724    -0.81800
O507        O  0.38135502  0.42233521  0.55447431    -0.81300
O508        O  0.06897852  0.41378295  0.55439172    -0.79800
O509        O  0.05929191  0.06294354  0.44976747    -0.83100
O510        O  0.44956729  0.04880632  0.49793287    -0.81000
O511        O  0.46141443  0.40263959  0.60447448    -0.79600
O512        O  0.44318807  0.35595992  0.49770963    -0.81100
O513        O  0.42849628  0.45130153  0.45005022    -0.83100
O514        O  0.47779418  0.35727779  0.53987297    -0.79800
O515        O  0.46524406  0.02030338  0.44858056    -0.82500
O516        O  0.10098645  0.44697505  0.51144463    -0.78200
O517        O  0.42770912  0.43803661  0.60494844    -0.78200
O518        O  0.41622984  0.01424443  0.54009201    -0.77900
O519        O  0.09173518  0.02637322  0.44863994    -0.81400
O520        O  0.47130605  0.40003383  0.44872223    -0.80800
O521        O  0.38244044  0.39003385  0.51166668    -0.79100
Eu522      Eu  0.06754480  0.98276845  0.49171451     2.39800
Eu523      Eu  0.45057849  0.48060514  0.56174274     2.39600
Eu524      Eu  0.01106192  0.42517005  0.56181620     2.38400
Eu525      Eu  0.00886466  0.04011725  0.49158851     2.39900
Eu526      Eu  0.45159069  0.42394433  0.49178743     2.39800
O527        O  0.45142121  0.48130868  0.50924081    -0.93500
O528        O  0.01021687  0.42529992  0.50933305    -0.92400
C529        C  0.00544975  0.40699906  0.43853256     1.01600
C530        C  0.36487469  0.39302690  0.53540994     1.00300
C531        C  0.09808927  0.42643311  0.53517512     0.99700
C532        C  0.08487962  0.05366217  0.43844214     1.01800
C533        C  0.41961927  0.03500155  0.51639434     1.00700
C534        C  0.43554603  0.41172979  0.61565328     0.99500
C535        C  0.45726265  0.33998191  0.51606558     0.99600
C536        C  0.43784336  0.48610227  0.43857666     1.02200
H537        H  0.43110244  0.39825176  0.55214804     0.29600
O538        O  0.45277825  0.42326450  0.54451014    -1.05700
H539        H  0.00923834  0.48217352  0.45261861     0.31600
O540        O  0.00924944  0.48221085  0.47420242    -1.08300
C541        C  0.11002577  0.15073428  0.86244597    -0.17100
C542        C  0.07384365  0.14242173  0.85205510    -0.32300
H543        H  0.11246050  0.13664296  0.88281647     0.11900
H544        H  0.07136387  0.15649209  0.83168894     0.12500
C545        C  0.50448357  0.21500460  0.03266336    -0.17100
C546        C  0.01350979  0.25135393  0.02206043    -0.32300
H547        H  0.01856593  0.21253895  0.05306049     0.11900
H548        H  0.99966278  0.25388934  0.00158961     0.12500
C549        C  0.40846422  0.31144929  0.18692287    -0.17100
C550        C  0.44480369  0.32022855  0.19722588    -0.32300
H551        H  0.40574106  0.32504055  0.16637940     0.11900
H552        H  0.44749592  0.30655069  0.21773462     0.12500
C553        C  0.27698596  0.48542914  0.53028205    -0.17100
C554        C  0.24070367  0.47656280  0.51972855    -0.32300
H555        H  0.27952339  0.47182805  0.55088321     0.11900
H556        H  0.23811272  0.49013419  0.49913091     0.12500
C557        C  0.18125869  0.08457368  0.68823782    -0.17100
C558        C  0.17256609  0.04827383  0.69862957    -0.32300
H559        H  0.16759439  0.08715180  0.66768383     0.11900
H560        H  0.18618356  0.04565106  0.71919307     0.12500
C561        C  0.34404975  0.41616607  0.35665599    -0.17100
C562        C  0.33486633  0.37987334  0.36736263    -0.32300
H563        H  0.33067603  0.41874628  0.33594840     0.11900
H564        H  0.34823014  0.37726622  0.38806428     0.12500
C565        C  0.43921203  0.08483098  0.18617404    -0.17100
C566        C  0.41168358  0.04859455  0.19670006    -0.32300
H567        H  0.45549121  0.08738153  0.16564698     0.11900
H568        H  0.39539296  0.04607008  0.21721608     0.12500
C569        C  0.08130617  0.15590988  0.36644020    -0.17100
C570        C  0.10857163  0.14680502  0.35596860    -0.32300
H571        H  0.06524845  0.14259139  0.38712108     0.11900
H572        H  0.12465171  0.16017364  0.33530326     0.12500
C573        C  0.24657903  0.98844730  0.03263916    -0.17100
C574        C  0.27429567  0.47982301  0.02216676    -0.32300
H575        H  0.23003276  0.97444741  0.05301995     0.11900
H576        H  0.29083740  0.49387244  0.00179279     0.12500
C577        C  0.24459487  0.21417919  0.53030888    -0.17100
C578        C  0.27195823  0.25052964  0.51986753    -0.32300
H579        H  0.22846201  0.21149955  0.55093973     0.11900
H580        H  0.28807955  0.25323821  0.49922594     0.12500
C581        C  0.41379376  0.32257528  0.70021083    -0.17100
C582        C  0.44200343  0.31459633  0.69010704    -0.32300
H583        H  0.39721229  0.30859400  0.72058454     0.11900
H584        H  0.45859593  0.32862226  0.66974620     0.12500
C585        C  0.07800813  0.38244591  0.86309453    -0.17100
C586        C  0.10620752  0.41863936  0.85297979    -0.32300
H587        H  0.06129958  0.37994550  0.88337689     0.11900
H588        H  0.12292863  0.42119633  0.83269348     0.12500
C589        C  0.17338075  0.08066006  0.19668113    -0.17100
C590        C  0.18183779  0.05283893  0.18642616    -0.32300
H591        H  0.18724344  0.09710835  0.21712577     0.11900
H592        H  0.16801560  0.03638195  0.16597644     0.12500
C593        C  0.11128962  0.41282535  0.36547129    -0.17100
C594        C  0.07495082  0.38522421  0.35515686    -0.32300
H595        H  0.11399393  0.42911975  0.38602094     0.11900
H596        H  0.07228991  0.36893377  0.33461269     0.12500
C597        C  0.27901768  0.24458487  0.03401759    -0.17100
C598        C  0.24286671  0.21666594  0.02360751    -0.37700
H599        H  0.28147795  0.26106246  0.05441907     0.11900
H600        H  0.24043661  0.20019827  0.00320578     0.12500
C601        C  0.50971282  0.24930731  0.52885613    -0.17100
C602        C  0.01831979  0.22175284  0.51843181    -0.32300
H603        H  0.52340925  0.26564058  0.54937542     0.11900
H604        H  0.00462009  0.20539254  0.49792516     0.12500
C605        C  0.33973739  0.41493558  0.86361838    -0.17100
C606        C  0.34827473  0.38722118  0.85325557    -0.32300
H607        H  0.35356772  0.43133330  0.88408750     0.11900
H608        H  0.33447693  0.37081947  0.83278205     0.12500
C609        C  0.40829911  0.05172981  0.68914219    -0.17100
C610        C  0.44463887  0.07908921  0.69960419    -0.32300
H611        H  0.40567042  0.03545451  0.66859682     0.11900
H612        H  0.44731531  0.09535114  0.72016660     0.12500
C613        C  0.30113898  0.99832514  0.71079919     0.79500
N614        N  0.33597435  0.50980088  0.69581781    -0.78800
C615        C  0.37108274  0.54158522  0.70517619     0.82000
N616        N  0.37164374  0.56243460  0.72982045    -0.78700
C617        C  0.33720766  0.55177241  0.74501823     0.82100
N618        N  0.30185628  0.51923711  0.73572962    -0.80400
C619        C  0.05159771  0.63199296  0.67705857     0.79500
N620        N  0.05010756  0.61125827  0.65185223    -0.78800
C621        C  0.01444265  0.57897181  0.64273000     0.82000
N622        N  0.48053297  0.56814125  0.65858435    -0.78700
C623        C  0.48178400  0.58870449  0.68360805     0.82100
N624        N  0.01712442  0.62050935  0.69262354    -0.80400
C625        C  0.28625023  0.96849700  0.84178551     0.79500
N626        N  0.26623691  0.94768442  0.81681475    -0.78800
C627        C  0.26904155  0.91513088  0.80762091     0.82000
N628        N  0.29247591  0.90426008  0.82301992    -0.78700
C629        C  0.31251333  0.92495846  0.84776225     0.82100
N630        N  0.30926420  0.95680769  0.85703696    -0.80400
C631        C  0.40217477  0.83417958  0.87593285     0.79500
N632        N  0.37912522  0.84559161  0.86036026    -0.78800
C633        C  0.37537382  0.87725321  0.86946720     0.82000
N634        N  0.39489503  0.89799736  0.89435115    -0.78700
C635        C  0.41825392  0.88735805  0.91003951     0.82100
N636        N  0.42154163  0.85501995  0.90102679    -0.80400
C637        C  0.45443153  0.80133188  0.50787297     0.79500
N638        N  0.43405707  0.78021808  0.48311535    -0.78800
C639        C  0.43745865  0.74812463  0.47361928     0.82000
N640        N  0.46191928  0.73806986  0.48847147    -0.78700
C641        C  0.48237667  0.75914677  0.51298031     0.82100
N642        N  0.47846102  0.79047035  0.52258797    -0.80400
C643        C  0.06957756  0.66664869  0.54236623     0.79500
N644        N  0.04781070  0.67905184  0.52619005    -0.78800
C645        C  0.04464862  0.71114187  0.53505293     0.82000
N646        N  0.06336880  0.73125023  0.56035340    -0.78700
C647        C  0.08541944  0.71962327  0.57670750     0.82100
N648        N  0.08822831  0.68692608  0.56786671    -0.80400
C649        C  0.38558499  0.79922232  0.01054136     0.79500
N650        N  0.35133149  0.78712710  0.02656709    -0.78800
C651        C  0.31605388  0.75507143  0.01767315     0.82000
N652        N  0.31475030  0.73474139  0.99254337    -0.78700
C653        C  0.34849912  0.74610609  0.97638461     0.82100
N654        N  0.38400867  0.77873785  0.98521103    -0.80400
C655        C  0.13537592  0.66460188  0.04416138     0.79500
N656        N  0.13603829  0.68561196  0.06893799    -0.78800
C657        C  0.17147514  0.71772871  0.07844402     0.82000
N658        N  0.20599634  0.72796147  0.06359491    -0.78700
C659        C  0.20548080  0.70702100  0.03906488     0.82100
N660        N  0.17030123  0.67560766  0.02942861    -0.80400
C661        C  0.46811714  0.83082894  0.37761610     0.79500
N662        N  0.46894224  0.85147071  0.40266589    -0.78800
C663        C  0.50422451  0.88411535  0.41180154     0.82000
N664        N  0.03845315  0.89546418  0.39619826    -0.78700
C665        C  0.03776320  0.87497722  0.37130293     0.82100
N666        N  0.50274263  0.84281511  0.36216879    -0.80400
C667        C  0.21835564  0.96538988  0.34302247     0.79500
N668        N  0.18384340  0.95417740  0.35846806    -0.78800
C669        C  0.14835095  0.92270716  0.34925881     0.82000
N670        N  0.14710727  0.90190438  0.32438818    -0.78700
C671        C  0.18116637  0.91232606  0.30881307     0.82100
N672        N  0.21686238  0.94451410  0.31793507    -0.80400
C673        C  0.12011136  0.63444912  0.17471557     0.79500
N674        N  0.10011613  0.61371518  0.14976080    -0.78800
C675        C  0.10294659  0.58123921  0.14049922     0.82000
N676        N  0.12640254  0.57030218  0.15582507    -0.78700
C677        C  0.14643441  0.59093547  0.18059914     0.82100
N678        N  0.14315177  0.62275052  0.18993019    -0.80400
C679        C  0.23596253  0.49999895  0.20904913     0.79500
N680        N  0.25520100  0.52077196  0.23421198    -0.78800
C681        C  0.25185538  0.55308227  0.24324822     0.82000
N682        N  0.22856502  0.56375942  0.22748919    -0.78700
C683        C  0.20916959  0.54308554  0.20253505     0.82100
N684        N  0.21298121  0.51145429  0.19342857    -0.80400
C685        C  0.02443408  0.77530996  0.84154097     0.79500
N686        N  0.04530771  0.77593018  0.81668392    -0.78800
C687        C  0.07775422  0.81124712  0.80734631     0.82000
N688        N  0.08848567  0.84571515  0.82248865    -0.78700
C689        C  0.06770391  0.84521676  0.84713162     0.82100
N690        N  0.03594168  0.81014812  0.85654371    -0.80400
C691        C  0.15930550  0.52550539  0.87586197     0.79500
N692        N  0.14776763  0.99115060  0.86014955    -0.78800
C693        C  0.11603654  0.95571923  0.86915445     0.82000
N694        N  0.09535239  0.95438253  0.89410308    -0.78700
C695        C  0.10613921  0.48826030  0.90993810     0.82100
N696        N  0.13848954  0.52391878  0.90099633    -0.80400
C697        C  0.36011939  0.87557132  0.67704900     0.79500
N698        N  0.38062456  0.89443812  0.65169695    -0.78800
C699        C  0.41289028  0.89102419  0.64265105     0.82000
N700        N  0.42381484  0.86811496  0.65860334    -0.78700
C701        C  0.40345565  0.84914818  0.68374674     0.82100
N702        N  0.37182375  0.85294261  0.69285956    -0.80400
C703        C  0.49496539  0.76038272  0.71163811     0.79500
N704        N  0.48364261  0.78381545  0.69657009    -0.78800
C705        C  0.45205899  0.78742090  0.70599458     0.82000
N706        N  0.43128474  0.76736353  0.73069018    -0.78700
C707        C  0.44183011  0.74356385  0.74589518     0.82100
N708        N  0.47409276  0.74036071  0.73656473    -0.80400
C709        C  0.19119306  0.60706311  0.50844163     0.79500
N710        N  0.20278335  0.64179010  0.52363609    -0.78800
C711        C  0.23453798  0.67693793  0.51432357     0.82000
N712        N  0.25529943  0.67760387  0.48960424    -0.78700
C713        C  0.24457110  0.64324162  0.47428895     0.82100
N714        N  0.21206886  0.60786155  0.48351408    -0.80400
C715        C  0.32550257  0.85737164  0.54276389     0.79500
N716        N  0.30488629  0.85589957  0.56800313    -0.78800
C717        C  0.27244881  0.82033215  0.57703063     0.82000
N718        N  0.26147784  0.78635677  0.56117411    -0.78700
C719        C  0.28198928  0.78757463  0.53613414     0.82100
N720        N  0.31374436  0.82295090  0.52704329    -0.80400
C721        C  0.19358590  0.54238771  0.00998297     0.79500
N722        N  0.21444126  0.56178463  0.98490833    -0.78800
C723        C  0.24672594  0.55843645  0.97586335     0.82000
N724        N  0.25730387  0.53499103  0.99150315    -0.78700
C725        C  0.23654695  0.51543031  0.01637279     0.82100
N726        N  0.20492232  0.51923499  0.02550809    -0.80400
C727        C  0.32807588  0.92652305  0.04390127     0.79500
N728        N  0.30728346  0.90634788  0.06880022    -0.78800
C729        C  0.27477830  0.90910863  0.07810853     0.82000
N730        N  0.26389058  0.93267687  0.06288193    -0.78700
C731        C  0.28457505  0.95288116  0.03817557     0.82100
N732        N  0.31641241  0.94967046  0.02880038    -0.80400
C733        C  0.16150979  0.59264301  0.37771900     0.79500
N734        N  0.15018925  0.61610060  0.36267686    -0.78800
C735        C  0.11857956  0.61969354  0.37206170     0.82000
N736        N  0.09765845  0.59945264  0.39669230    -0.78700
C737        C  0.10811347  0.57550501  0.41186714     0.82100
N738        N  0.14049947  0.57244805  0.40257727    -0.80400
C739        C  0.02740169  0.70877164  0.34329607     0.79500
N740        N  0.03943991  0.68649791  0.35922191    -0.78800
C741        C  0.07123832  0.68293033  0.35018160     0.82000
N742        N  0.09150680  0.70187135  0.32497467    -0.78700
C743        C  0.08027977  0.72449752  0.30889936     0.82100
N744        N  0.04780428  0.72759961  0.31789132    -0.80400
C745        C  0.49248972  0.69178882  0.20867389     0.79500
N746        N  0.47188002  0.69035932  0.23393329    -0.78800
C747        C  0.43955379  0.65474453  0.24305853     0.82000
N748        N  0.42871960  0.62076766  0.22729417    -0.78700
C749        C  0.44919631  0.62195396  0.20226682     0.82100
N750        N  0.48083558  0.65732006  0.19306345    -0.80400
C751        C  0.35856501  0.94140377  0.17512817     0.79500
N752        N  0.37003470  0.97615127  0.19026983    -0.78800
C753        C  0.40184220  0.51132452  0.18093641     0.82000
N754        N  0.42259311  0.51202296  0.15621858    -0.78700
C755        C  0.41182932  0.97766654  0.14091960     0.82100
N756        N  0.37944397  0.94224891  0.15019926    -0.80400
C757        C  0.28284940  0.77324262  0.34393077     0.79500
N758        N  0.30482989  0.80750688  0.35998146    -0.78800
C759        C  0.30806063  0.84277809  0.35104442     0.82000
N760        N  0.28913269  0.84406683  0.32582700    -0.78700
C761        C  0.26684278  0.81030166  0.30961024     0.82100
N762        N  0.26402194  0.77480149  0.31850163    -0.80400
C763        C  0.39929992  0.52359337  0.37748461     0.79500
N764        N  0.37551986  0.98869804  0.36265251    -0.78800
C765        C  0.37162595  0.95346752  0.37230844     0.82000
N766        N  0.39185123  0.95287406  0.39696872    -0.78700
C767        C  0.41608552  0.48739451  0.41192332     0.82100
N768        N  0.41943450  0.52284888  0.40238797    -0.80400
C769        C  0.23334912  0.69142836  0.71080936     0.79500
N770        N  0.25307856  0.69062757  0.73590217    -0.78800
C771        C  0.25053995  0.65540159  0.74502310     0.82000
N772        N  0.22765642  0.62113421  0.72939079    -0.78700
C773        C  0.20790873  0.62178026  0.70445749     0.82100
N774        N  0.21087771  0.65681396  0.69528656    -0.80400
C775        C  0.11760326  0.94105693  0.67658255     0.79500
N776        N  0.09812981  0.94245105  0.65152721    -0.78800
C777        C  0.10168446  0.97812065  0.64232557     0.82000
N778        N  0.12540789  0.51222180  0.65779484    -0.78700
C779        C  0.14506544  0.51108833  0.68263763     0.82100
N780        N  0.14106339  0.97564324  0.69191524    -0.80400
C781        C  0.38414863  0.53872674  0.50857715     0.79500
N782        N  0.34938029  0.51577220  0.52379110    -0.78800
C783        C  0.31430667  0.51251192  0.51438679     0.82000
N784        N  0.31376313  0.53248292  0.48955815    -0.78700
C785        C  0.34816526  0.55587447  0.47422610     0.82100
N786        N  0.38344962  0.55867959  0.48355912    -0.80400
C787        C  0.13376901  0.92272971  0.54242389     0.79500
N788        N  0.16821424  0.94570702  0.52680083    -0.78800
C789        C  0.20365227  0.94949832  0.53591667     0.82000
N790        N  0.20490039  0.93007284  0.56084958    -0.78700
C791        C  0.17093864  0.90677897  0.57659304     0.82100
N792        N  0.13529016  0.90345880  0.56757358    -0.80400
C793        C  0.30133086  0.75683404  0.20917774     0.79500
N794        N  0.33583961  0.77989816  0.19368614    -0.78800
C795        C  0.37128628  0.78393509  0.20299584     0.82000
N796        N  0.37250121  0.76463769  0.22803388    -0.78700
C797        C  0.33843664  0.74121402  0.24367788     0.82100
N798        N  0.30276998  0.73768227  0.23443560    -0.80400
C799        C  0.05160916  0.87294311  0.17478802     0.79500
N800        N  0.05077257  0.89305549  0.14988591    -0.78800
C801        C  0.01546224  0.89052472  0.14086209     0.82000
N802        N  0.48112630  0.86709916  0.15630485    -0.78700
C803        C  0.48182790  0.84693598  0.18098389     0.82100
N804        N  0.01697293  0.85010995  0.19016468    -0.80400
C805        C  0.45020724  0.60797529  0.01025339     0.79500
N806        N  0.43082528  0.60946046  0.98514692    -0.78800
C807        C  0.43410973  0.64510536  0.97613613     0.82000
N808        N  0.45746977  0.67907661  0.99184205    -0.78700
C809        C  0.47698333  0.67783798  0.01672408     0.82100
N810        N  0.47323898  0.64243014  0.02582918    -0.80400
C811        C  0.06683571  0.85837523  0.04393873     0.79500
N812        N  0.08702510  0.85761883  0.06882624    -0.78800
C813        C  0.08432837  0.82228160  0.07797281     0.82000
N814        N  0.06081999  0.78796115  0.06262119    -0.78700
C815        C  0.04061849  0.78858446  0.03796871     0.82100
N816        N  0.04376332  0.82365194  0.02873321    -0.80400
C817        C  0.21762687  0.70632458  0.84204707     0.79500
N818        N  0.18264071  0.68232609  0.85668359    -0.78800
C819        C  0.14748042  0.67854072  0.84697834     0.82000
N820        N  0.14704972  0.69903034  0.82245045    -0.78700
C821        C  0.18164784  0.72342496  0.80769067     0.82100
N822        N  0.21705466  0.72674991  0.81728078    -0.80400
C823        C  0.46727540  0.59024295  0.87547447     0.79500
N824        N  0.46884611  0.57122600  0.90076441    -0.78800
C825        C  0.50439363  0.57417931  0.90962840     0.82000
N826        N  0.03815425  0.59665241  0.89345965    -0.78700
C827        C  0.03683211  0.61576502  0.86837131     0.82100
N828        N  0.50157520  0.61257610  0.85953431    -0.80400
O829        O  0.37338814  0.60039366  0.78314949    -0.80800
O830        O  0.21502220  0.59033522  0.88784271    -0.82400
O831        O  0.27618075  0.52384513  0.83118617    -0.79400
O832        O  0.26251802  0.61932487  0.78328205    -0.77800
O833        O  0.29895406  0.68834801  0.78213342    -0.79600
O834        O  0.31083313  0.52505981  0.87327570    -0.80500
O835        O  0.21615314  0.55843160  0.84482436    -0.81800
O836        O  0.30438905  0.56790601  0.78194147    -0.82100
Eu837      Eu  0.28526609  0.59207086  0.82515613     2.39200
O838        O  0.28485037  0.64928352  0.84274962    -0.89600
O839        O  0.34386646  0.59300612  0.84255920    -0.93200
C840        C  0.33855429  0.57484396  0.77174061     1.01500
C841        C  0.19858810  0.56122890  0.86861805     1.01300
C842        C  0.29001603  0.50769617  0.84959173     1.01200
C843        C  0.27186708  0.65413380  0.77188763     0.99100
H844        H  0.26473332  0.56624821  0.88543649     0.28800
O845        O  0.28642500  0.59128263  0.87784286    -1.02000
H846        H  0.34294593  0.65042047  0.78615273     0.28900
O847        O  0.34291536  0.65036423  0.80773562    -1.04600
O848        O  0.31156578  0.69783055  0.93805977    -0.81800
O849        O  0.46926168  0.70978896  0.83117399    -0.81300
O850        O  0.29527382  0.57035530  0.93765567    -0.79800
O851        O  0.28322977  0.71707323  0.83161257    -0.83100
O852        O  0.39310055  0.73111859  0.78378714    -0.81000
O853        O  0.40269791  0.58171529  0.88756758    -0.79600
O854        O  0.42249126  0.68195129  0.93783163    -0.81100
O855        O  0.41135024  0.77842806  0.88775977    -0.83100
O856        O  0.38703258  0.61285173  0.93843860    -0.79800
O857        O  0.37783333  0.77718538  0.84498468    -0.82500
O858        O  0.26165109  0.60582414  0.93842263    -0.78200
O859        O  0.43472069  0.61498709  0.84466780    -0.78200
O860        O  0.42530562  0.69431320  0.78236065    -0.77900
O861        O  0.24988325  0.68226823  0.87369454    -0.81400
O862        O  0.38067739  0.73183798  0.93839589    -0.80800
O863        O  0.46809787  0.74331433  0.87323133    -0.79100
Eu864      Eu  0.28419353  0.64850831  0.89523656     2.39800
Eu865      Eu  0.40103996  0.65060207  0.82513411     2.39600
Eu866      Eu  0.34477924  0.59304757  0.89502546     2.38400
Eu867      Eu  0.34236060  0.70803276  0.82529800     2.39900
Eu868      Eu  0.40023118  0.70915907  0.89507127     2.39800
O869        O  0.39988542  0.70816730  0.84263380    -0.93500
O870        O  0.34312782  0.65023828  0.91197659    -0.92400
C871        C  0.34651823  0.72372283  0.94922330     1.01600
C872        C  0.48539888  0.73983056  0.84953585     1.00300
C873        C  0.26947299  0.57941380  0.94895675     0.99700
C874        C  0.25323924  0.70305603  0.85002189     1.01800
C875        C  0.41860662  0.72177905  0.77240379     1.00700
C876        C  0.43179782  0.59435986  0.86835176     0.99500
C877        C  0.41334156  0.64702839  0.94911041     0.99600
C878        C  0.39848347  0.79483257  0.86866245     1.02200
H879        H  0.42708750  0.65581431  0.88538703     0.29600
O880        O  0.40208364  0.65258770  0.87781956    -1.05700
H881        H  0.33735993  0.72866760  0.88566633     0.31600
O882        O  0.34064713  0.70697369  0.87799447    -1.08300
O883        O  0.43009946  0.93586440  0.94828246    -0.80800
O884        O  0.07685884  0.92373822  0.05460260    -0.82400
O885        O  0.05752794  0.95143732  0.94815794    -0.79400
O886        O  0.45005337  0.85527899  0.99836707    -0.77800
O887        O  0.41807422  0.85646522  0.04132046    -0.79600
O888        O  0.09123856  0.52053903  0.94750618    -0.80500
O889        O  0.04199193  0.89031233  0.01258088    -0.81800
O890        O  0.46548018  0.90214743  0.94757478    -0.82100
Eu891      Eu  0.00804201  0.92446372  0.99086268     2.39200
O892        O  0.50878014  0.92513061  0.04330535    -0.89600
O893        O  0.00969030  0.98335909  0.97401100    -0.93200
C894        C  0.43915341  0.91005331  0.93698926     1.01500
C895        C  0.06295577  0.89376386  0.03619026     1.01300
C896        C  0.08336960  0.98634870  0.93692317     1.01200
C897        C  0.42100036  0.83881089  0.01762074     0.99100
H898        H  0.08814523  0.97767445  0.00037207     0.28800
O899        O  0.06645379  0.98098574  0.00801001    -1.02000
H900        H  0.42582045  0.90507291  0.00059517     0.28900
O901        O  0.45083442  0.92683291  0.00816429    -1.04600
O902        O  0.09060018  0.53292461  0.10237006    -0.81800
O903        O  0.44127942  0.54318587  0.99833151    -0.81300
O904        O  0.13789376  0.55161343  0.99811699    -0.79800
O905        O  0.47913807  0.90288399  0.10275551    -0.83100
O906        O  0.38341443  0.91653756  0.05455226    -0.81000
O907        O  0.04136065  0.56266864  0.94792179    -0.79600
O908        O  0.06972417  0.60978934  0.05460347    -0.81100
O909        O  0.46024028  0.51402571  0.10275220    -0.83100
O910        O  0.10302182  0.60841080  0.01246806    -0.79800
O911        O  0.42782297  0.94497836  0.10400401    -0.82500
O912        O  0.13666061  0.51821857  0.04096024    -0.78200
O913        O  0.47223173  0.52755080  0.94759039    -0.78200
O914        O  0.38465539  0.95128666  0.01250950    -0.77900
O915        O  0.04819489  0.93930930  0.10386279    -0.81400
O916        O  0.05409695  0.56544151  0.10373210    -0.80800
O917        O  0.47474527  0.57534449  0.04114546    -0.79100
Eu918      Eu  0.06753009  0.98271391  0.06069713     2.39800
Eu919      Eu  0.45264866  0.98526512  0.99097901     2.39600
Eu920      Eu  0.06866059  0.54050862  0.99073154     2.38400
Eu921      Eu  0.45166839  0.92568303  0.06084263     2.39900
Eu922      Eu  0.01041603  0.54169702  0.06077167     2.39800
O923        O  0.45266654  0.98439318  0.04345943    -0.93500
O924        O  0.06780658  0.54029506  0.04320297    -0.92400
C925        C  0.08132174  0.55841510  0.11380657     1.01600
C926        C  0.45406119  0.57237647  0.01747782     1.00300
C927        C  0.15428906  0.53878758  0.01725553     0.99700
C928        C  0.51398425  0.91211745  0.11409533     1.01800
C929        C  0.36726829  0.93036888  0.03612863     1.00700
C930        C  0.00640755  0.55362267  0.93674492     0.99500
C931        C  0.09971597  0.62577082  0.03619218     0.99600
C932        C  0.43475379  0.97913348  0.11417605     1.02200
H933        H  0.01555099  0.56763341  0.00045250     0.29600
O934        O  0.01227950  0.54263205  0.00806889    -1.05700
H935        H  0.01001296  0.98344648  0.09978835     0.31600
O936        O  0.00995247  0.98344695  0.07820656    -1.08300
O937        O  0.42454660  0.69913754  0.43577860    -0.80800
O938        O  0.27451187  0.70869523  0.33196141    -0.82400
O939        O  0.40280080  0.77542635  0.38833484    -0.79400
O940        O  0.29324758  0.67953857  0.43631246    -0.77800
O941        O  0.26075398  0.61051623  0.43736519    -0.79600
O942        O  0.43621197  0.77423224  0.34621820    -0.80500
O943        O  0.30796935  0.74090042  0.37477341    -0.81800
O944        O  0.38772626  0.73131875  0.43733031    -0.82100
Eu945      Eu  0.34362458  0.70717205  0.39452800     2.39200
O946        O  0.28609729  0.64991810  0.37693204    -0.89600
O947        O  0.40109898  0.70594544  0.37691120    -0.93200
C948        C  0.41530336  0.72468376  0.44721186     1.01500
C949        C  0.28719658  0.73786615  0.35111770     1.01300
C950        C  0.43275681  0.79158775  0.36988890     1.01200
C951        C  0.26765849  0.64466021  0.44760439     0.99100
H952        H  0.34871190  0.73309723  0.33431375     0.28800
O953        O  0.34549974  0.70808448  0.34183977    -1.02000
H954        H  0.34328433  0.64881385  0.43338546     0.28900
O955        O  0.34325110  0.64885679  0.41180131    -1.04600
O956        O  0.26358318  0.60152525  0.28160845    -0.81800
O957        O  0.41004075  0.58923487  0.38794466    -0.81300
O958        O  0.37507413  0.72915581  0.28189641    -0.79800
O959        O  0.21667404  0.58219071  0.38820655    -0.83100
O960        O  0.31213067  0.56809854  0.43601618    -0.81000
O961        O  0.47135668  0.71753605  0.33161718    -0.79600
O962        O  0.39117834  0.61785450  0.28142293    -0.81100
O963        O  0.28336021  0.52108682  0.33135218    -0.83100
O964        O  0.42486626  0.68695127  0.28095394    -0.79800
O965        O  0.25124447  0.52208147  0.37429675    -0.82500
O966        O  0.30598362  0.69393995  0.28134175    -0.78200
O967        O  0.47024078  0.68394330  0.37431447    -0.78200
O968        O  0.38115071  0.60468919  0.43730637    -0.77900
O969        O  0.21798015  0.61694698  0.34615109    -0.81400
O970        O  0.29906367  0.56791097  0.28085376    -0.80800
O971        O  0.37523742  0.55593118  0.34584728    -0.79100
Eu972      Eu  0.28601153  0.65089449  0.32443059     2.39800
Eu973      Eu  0.40104501  0.64841734  0.39423598     2.39600
Eu974      Eu  0.40207275  0.70634927  0.32442693     2.38400
Eu975      Eu  0.28492725  0.59116378  0.39424940     2.39900
Eu976      Eu  0.34158001  0.59034037  0.32415517     2.39800
O977        O  0.34227471  0.59099354  0.37665639    -0.93500
O978        O  0.34319437  0.64925900  0.30738706    -0.92400
C979        C  0.27269389  0.57576109  0.27026828     1.01600
C980        C  0.39601191  0.55924140  0.36953090     1.00300
C981        C  0.34019727  0.72026325  0.27069026     0.99700
C982        C  0.20058134  0.59613443  0.36983053     1.01800
C983        C  0.34693338  0.57743551  0.44744574     1.00700
C984        C  0.48785262  0.70468012  0.35063439     0.99500
C985        C  0.41698884  0.65281137  0.27019273     0.99600
C986        C  0.25413046  0.50458565  0.35047794     1.02200
H987        H  0.42165311  0.64353901  0.33383026     0.29600
O988        O  0.39995335  0.64679848  0.34151838    -1.05700
H989        H  0.25927573  0.57083768  0.33388299     0.31600
O990        O  0.28427906  0.59250108  0.34154511    -1.08300
O991        O  0.23572286  0.94292911  0.72139211    -0.80800
O992        O  0.22388900  0.78379814  0.61534983    -0.82400
O993        O  0.30429965  0.88450168  0.66517307    -0.79400
O994        O  0.20780241  0.89526912  0.61491663    -0.77800
O995        O  0.13869366  0.85983126  0.61437044    -0.79600
O996        O  0.30323161  0.85148623  0.70819136    -0.80500
O997        O  0.25775504  0.85289206  0.61464486    -0.81800
O998        O  0.26923027  0.94147619  0.67941958    -0.82100
Eu999      Eu  0.23509894  0.87326544  0.65776115     2.39200
O1000       O  0.17618682  0.81593015  0.64100243    -0.89600
O1001       O  0.23434195  0.87344558  0.71025310    -0.93200
C1002       C  0.26573590  0.95901804  0.70300436     1.01500
C1003       C  0.24980656  0.81862991  0.60405411     1.01300
C1004       C  0.32078393  0.87188301  0.68438233     1.01200
C1005       C  0.17286610  0.88609620  0.60365723     0.99100
H1006       H  0.25453410  0.81052008  0.66770809     0.28800
O1007       O  0.23280008  0.81381519  0.67526916    -1.02000
H1008       H  0.18181855  0.89999612  0.66723419     0.28900
O1009       O  0.17850629  0.87502310  0.67493752    -1.04600
O1010       O  0.11660594  0.68776613  0.66543557    -0.81800
O1011       O  0.12628250  0.84721333  0.76928892    -0.81300
O1012       O  0.24295024  0.75661247  0.72165512    -0.79800
O1013       O  0.09674702  0.76795792  0.61509479    -0.83100
O1014       O  0.10808883  0.87594843  0.66497510    -0.81000
O1015       O  0.25674430  0.86646739  0.76965434    -0.79600
O1016       O  0.14561448  0.73578868  0.76962510    -0.81100
O1017       O  0.04983838  0.74959598  0.72198924    -0.83100
O1018       O  0.21462191  0.77261699  0.77108586    -0.79800
O1019       O  0.05113886  0.78421582  0.67984633    -0.82500
O1020       O  0.20851930  0.72319706  0.67948431    -0.78200
O1021       O  0.22022026  0.89895741  0.77068712    -0.78200
O1022       O  0.14130375  0.90816566  0.70785944    -0.77900
O1023       O  0.13192324  0.73403937  0.61481840    -0.81400
O1024       O  0.08420670  0.68912813  0.70809043    -0.80800
O1025       O  0.09398384  0.77820369  0.77081167    -0.79100
Eu1026     Eu  0.17444861  0.75711087  0.65807777     2.39800
Eu1027     Eu  0.17674946  0.87455867  0.72763248     2.39600
Eu1028     Eu  0.23402566  0.81593262  0.72794324     2.38400
Eu1029     Eu  0.11895545  0.81761350  0.65779568     2.39900
Eu1030     Eu  0.11798038  0.75843333  0.72788518     2.39800
O1031       O  0.11923156  0.81711942  0.71025864    -0.93500
O1032       O  0.17534588  0.75819145  0.71057895    -0.92400
C1033       C  0.08726170  0.67138956  0.68445405     1.01600
C1034       C  0.10080778  0.81243993  0.78076706     1.00300
C1035       C  0.22931448  0.72670264  0.70315642     0.99700
C1036       C  0.10579846  0.74203429  0.60395662     1.01800
C1037       C  0.12090522  0.90523846  0.68405770     1.00700
C1038       C  0.24744944  0.89206618  0.78092875     0.99500
C1039       C  0.18042154  0.74522241  0.78110208     0.99600
C1040       C  0.03382144  0.76361075  0.70361723     1.02200
H1041       H  0.17619266  0.81646517  0.76686793     0.29600
O1042       O  0.17620068  0.81636418  0.74528494    -1.05700
H1043       H  0.09208314  0.73750083  0.66759428     0.31600
O1044       O  0.11707017  0.75925811  0.67519961    -1.08300
O1045       O  0.20757572  0.76625810  0.11644019    -0.80800
O1046       O  0.04844228  0.75658265  0.22042918    -0.82400
O1047       O  0.11002090  0.68974335  0.16405367    -0.79400
O1048       O  0.09655847  0.78591013  0.11600575    -0.77800
O1049       O  0.13316127  0.85493089  0.11488908    -0.79600
O1050       O  0.14455451  0.69087379  0.20620034    -0.80500
O1051       O  0.04967106  0.72435577  0.17762902    -0.81800
O1052       O  0.13855675  0.73404870  0.11491685    -0.82100
Eu1053     Eu  0.11897919  0.75798360  0.15787515     2.39200
O1054       O  0.11864846  0.81521643  0.17535343    -0.89600
O1055       O  0.17771213  0.75911708  0.17538427    -0.93200
C1056       C  0.17276689  0.74083783  0.10496922     1.01500
C1057       C  0.03198813  0.72738642  0.20130751     1.01300
C1058       C  0.12380975  0.67357132  0.18250202     1.01200
C1059       C  0.10592669  0.82080286  0.10466589     0.99100
H1060       H  0.09818423  0.73200271  0.21809597     0.28800
O1061       O  0.11997936  0.75700292  0.21054344    -1.02000
H1062       H  0.17697538  0.81630184  0.11905052     0.28900
O1063       O  0.17691822  0.81625076  0.14063284    -1.04600
O1064       O  0.14453374  0.86372317  0.27055184    -0.81800
O1065       O  0.30338517  0.87595878  0.16438948    -0.81300
O1066       O  0.12874616  0.73618775  0.27055153    -0.79800
O1067       O  0.11702762  0.88292662  0.16410358    -0.83100
O1068       O  0.22650524  0.89680271  0.11628542    -0.81000
O1069       O  0.23630214  0.74748063  0.22065829    -0.79600
O1070       O  0.25563438  0.84727785  0.27109624    -0.81100
O1071       O  0.24496486  0.94408532  0.22089223    -0.83100
O1072       O  0.22049808  0.77817621  0.27137029    -0.79800
O1073       O  0.21182472  0.94305812  0.17795521    -0.82500
O1074       O  0.09484216  0.77137294  0.27099890    -0.78200
O1075       O  0.26875335  0.78110221  0.17796064    -0.78200
O1076       O  0.25897916  0.86025965  0.11497508    -0.77900
O1077       O  0.08356316  0.84813757  0.20613081    -0.81400
O1078       O  0.21362704  0.89732115  0.27136037    -0.80800
O1079       O  0.30198309  0.90912091  0.20659471    -0.79100
Eu1080     Eu  0.11773110  0.81426547  0.22783838     2.39800
Eu1081     Eu  0.23517033  0.81672086  0.15810547     2.39600
Eu1082     Eu  0.17833101  0.75876830  0.22787975     2.38400
Eu1083     Eu  0.17632983  0.87395388  0.15809161     2.39900
Eu1084     Eu  0.23384993  0.87481404  0.22815701     2.39800
O1085       O  0.23388816  0.87418034  0.17564470    -0.93500
O1086       O  0.17654956  0.81586746  0.24481821    -0.92400
C1087       C  0.17938973  0.88952253  0.28188619     1.01600
C1088       C  0.31943945  0.90585213  0.18289642     1.00300
C1089       C  0.10280822  0.74515436  0.28174701     0.99700
C1090       C  0.08701569  0.86904311  0.18249975     1.01800
C1091       C  0.25196670  0.88747877  0.10484216     1.00700
C1092       C  0.26566113  0.76041135  0.20165905     0.99500
C1093       C  0.24652935  0.81230689  0.28228914     0.99600
C1094       C  0.23225983  0.96058681  0.20174751     1.02200
H1095       H  0.26073187  0.82159620  0.21851359     0.29600
O1096       O  0.23577562  0.81834235  0.21081674    -1.05700
H1097       H  0.17106595  0.89435563  0.21839597     0.31600
O1098       O  0.17439391  0.87267363  0.21076373    -1.08300
O1099       O  0.47772134  0.53025242  0.60447869    -0.80800
O1100       O  0.13589286  0.54161577  0.49783719    -0.82400
O1101       O  0.08947920  0.51458954  0.60416552    -0.79400
O1102       O  0.07794388  0.61047512  0.55425808    -0.77800
O1103       O  0.04453375  0.60933759  0.51144730    -0.79600
O1104       O  0.05403197  0.94554948  0.60498000    -0.80500
O1105       O  0.13450509  0.57516890  0.53980117    -0.81800
O1106       O  0.04674160  0.56410127  0.60493537    -0.82100
Eu1107     Eu  0.06652994  0.54122919  0.56160331     2.39200
O1108       O  0.06637868  0.54029249  0.50910575    -0.89600
O1109       O  0.00942539  0.98247450  0.57872897    -0.93200
C1110       C  0.01256717  0.55622431  0.61566237     1.01500
C1111       C  0.15198033  0.57163923  0.51621515     1.01300
C1112       C  0.08051913  0.97980153  0.61547056     1.01200
C1113       C  0.06526647  0.62699001  0.53513231     0.99100
H1114       H  0.09330794  0.48786673  0.55197217     0.28800
O1115       O  0.06832958  0.98468416  0.54441289    -1.02000
H1116       H  0.00380112  0.56072157  0.55190517     0.28900
O1117       O  0.00702365  0.53896220  0.54430031    -1.04600
O1118       O  0.04029973  0.93250933  0.44996113    -0.81800
O1119       O  0.38137225  0.92232161  0.55444587    -0.81300
O1120       O  0.06901669  0.91386538  0.55442059    -0.79800
O1121       O  0.05928730  0.56296326  0.44981457    -0.83100
O1122       O  0.44952763  0.54879013  0.49794656    -0.81000
O1123       O  0.46141375  0.90257609  0.60441587    -0.79600
O1124       O  0.44321900  0.85598095  0.49765868    -0.81100
O1125       O  0.42849776  0.95129422  0.45003195    -0.83100
O1126       O  0.47785991  0.85731416  0.53980559    -0.79800
O1127       O  0.46523075  0.52031198  0.44860564    -0.82500
O1128       O  0.10102205  0.94704742  0.51147066    -0.78200
O1129       O  0.42773334  0.93799680  0.60490809    -0.78200
O1130       O  0.41619255  0.51423743  0.54010851    -0.77900
O1131       O  0.09171085  0.52637453  0.44865360    -0.81400
O1132       O  0.47134905  0.90005274  0.44869819    -0.80800
O1133       O  0.38245646  0.89001894  0.51163981    -0.79100
Eu1134     Eu  0.06751555  0.48271052  0.49169896     2.39800
Eu1135     Eu  0.45060473  0.98059541  0.56171390     2.39600
Eu1136     Eu  0.01109064  0.92524465  0.56183131     2.38400
Eu1137     Eu  0.00882736  0.54005817  0.49159936     2.39900
Eu1138     Eu  0.45161545  0.92395642  0.49175746     2.39800
O1139       O  0.45145231  0.98132174  0.50921111    -0.93500
O1140       O  0.01024361  0.92536982  0.50935107    -0.92400
C1141       C  0.00548168  0.90705721  0.43855548     1.01600
C1142       C  0.36488690  0.89301119  0.53538209     1.00300
C1143       C  0.09813009  0.92651672  0.53520589     0.99700
C1144       C  0.08487832  0.55369301  0.43848530     1.01800
C1145       C  0.41957637  0.53498056  0.51640369     1.00700
C1146       C  0.43554627  0.91166535  0.61559737     0.99500
C1147       C  0.45732447  0.84001985  0.51600094     0.99600
C1148       C  0.43784542  0.98609332  0.43855862     1.02200
H1149       H  0.43112750  0.89824422  0.55210940     0.29600
O1150       O  0.45280419  0.92326012  0.54447674    -1.05700
H1151       H  0.00926443  0.98221454  0.45263194     0.31600
O1152       O  0.00927772  0.98226103  0.47421577    -1.08300
C1153       C  0.11007085  0.65079516  0.86243073    -0.17100
C1154       C  0.07389334  0.64252182  0.85205791    -0.32300
H1155       H  0.11250536  0.63669073  0.88279408     0.11900
H1156       H  0.07141341  0.65660625  0.83169951     0.12500
C1157       C  0.50433934  0.71493534  0.03274935    -0.17100
C1158       C  0.01337196  0.75133096  0.02213323    -0.32300
H1159       H  0.01843767  0.71251111  0.05312418     0.11900
H1160       H  0.99953111  0.75387181  0.00166093     0.12500
C1161       C  0.40833877  0.81115806  0.18680965    -0.17100
C1162       C  0.44467597  0.81991186  0.19710217    -0.32300
H1163       H  0.40561676  0.82475580  0.16626937     0.11900
H1164       H  0.44736651  0.80622669  0.21760759     0.12500
C1165       C  0.27706221  0.98560541  0.53036310    -0.17100
C1166       C  0.24078006  0.97675695  0.51981805    -0.32300
H1167       H  0.27959746  0.97199385  0.55095942     0.11900
H1168       H  0.23819176  0.99033891  0.49922519     0.12500
C1169       C  0.18119667  0.58455046  0.68827992    -0.17100
C1170       C  0.17248879  0.54824388  0.69866793    -0.32300
H1171       H  0.16754699  0.58713503  0.66772031     0.11900
H1172       H  0.18609191  0.54561533  0.71923706     0.12500
C1173       C  0.34392857  0.91613439  0.35670046    -0.17100
C1174       C  0.33473175  0.87984015  0.36741427    -0.32300
H1175       H  0.33055224  0.91871099  0.33599314     0.11900
H1176       H  0.34809975  0.87723828  0.38811550     0.12500
C1177       C  0.43923152  0.58483343  0.18619053    -0.17100
C1178       C  0.41176926  0.54858853  0.19674051    -0.32300
H1179       H  0.45548686  0.58739948  0.16564748     0.11900
H1180       H  0.39550307  0.54604872  0.21727286     0.12500
C1181       C  0.08150284  0.65620217  0.36663638    -0.17100
C1182       C  0.10877618  0.64710782  0.35616981    -0.32300
H1183       H  0.06544070  0.64288121  0.38731542     0.11900
H1184       H  0.12486217  0.66048128  0.33550731     0.12500
C1185       C  0.24639461  0.48814974  0.03245470    -0.17100
C1186       C  0.27446174  0.98009683  0.02234650    -0.32300
H1187       H  0.22984811  0.47414564  0.05283456     0.11900
H1188       H  0.29100325  0.99414270  0.00197174     0.12500
C1189       C  0.24454386  0.71416409  0.53029239    -0.17100
C1190       C  0.27188225  0.75051400  0.51982656    -0.32300
H1191       H  0.22843173  0.71149383  0.55093220     0.11900
H1192       H  0.28798200  0.75321198  0.49917574     0.12500
C1193       C  0.41372376  0.82245348  0.70013429    -0.17100
C1194       C  0.44195512  0.81449631  0.69005053    -0.32300
H1195       H  0.39713244  0.80847080  0.72050441     0.11900
H1196       H  0.45855705  0.82852375  0.66969324     0.12500
C1197       C  0.07780144  0.88249902  0.86297094    -0.17100
C1198       C  0.10601988  0.91869805  0.85288395    -0.32300
H1199       H  0.06107585  0.87998309  0.88324719     0.11900
H1200       H  0.12275531  0.92126913  0.83260274     0.12500
C1201       C  0.17351060  0.58076889  0.19657981    -0.17100
C1202       C  0.18201810  0.55298826  0.18631520    -0.32300
H1203       H  0.18734441  0.59720432  0.21703468     0.11900
H1204       H  0.16822482  0.53654456  0.16585514     0.12500
C1205       C  0.11128117  0.91298884  0.36540088    -0.17100
C1206       C  0.07493824  0.88536604  0.35510836    -0.32300
H1207       H  0.11399727  0.92930409  0.38594173     0.11900
H1208       H  0.07226747  0.86905504  0.33457330     0.12500
C1209       C  0.27899920  0.74462421  0.03399778    -0.17100
C1210       C  0.24284853  0.71674708  0.02356415    -0.37700
H1211       H  0.28146109  0.76107426  0.05441482     0.11900
H1212       H  0.24041861  0.70030824  0.00314660     0.12500
C1213       C  0.50996133  0.74950246  0.52870113    -0.17100
C1214       C  0.01838944  0.72179690  0.51842394    -0.32300
H1215       H  0.52369392  0.76587594  0.54919959     0.11900
H1216       H  0.00462652  0.70539027  0.49794570     0.12500
C1217       C  0.33960197  0.91482011  0.86371655    -0.17100
C1218       C  0.34814833  0.88711132  0.85335370    -0.32300
H1219       H  0.35343569  0.93122372  0.88418297     0.11900
H1220       H  0.33434684  0.87070314  0.83288316     0.12500
C1221       C  0.40836852  0.55147926  0.68934068    -0.17100
C1222       C  0.44470547  0.57885143  0.69980040    -0.32300
H1223       H  0.40574240  0.53519798  0.66879903     0.11900
H1224       H  0.44737933  0.59511915  0.72035920     0.12500
C1225       C  0.80111770  0.49831786  0.71084360     0.79500
N1226       N  0.83587804  0.00997354  0.69572179    -0.78800
C1227       C  0.87096683  0.04182465  0.70503681     0.82000
N1228       N  0.87154458  0.06260493  0.72972865    -0.78700
C1229       C  0.83714373  0.05181563  0.74501434     0.82100
N1230       N  0.80181255  0.01922425  0.73576220    -0.80400
C1231       C  0.55164225  0.13194701  0.67708246     0.79500
N1232       N  0.55016715  0.11122803  0.65186811    -0.78800
C1233       C  0.51450952  0.07893644  0.64273498     0.82000
N1234       N  0.98040578  0.06840465  0.65841823    -0.78700
C1235       C  0.98165297  0.08901432  0.68341266     0.82100
N1236       N  0.51716345  0.12044100  0.69264400    -0.80400
C1237       C  0.78624291  0.46850560  0.84186912     0.79500
N1238       N  0.76617638  0.44765961  0.81692148    -0.78800
C1239       C  0.76899697  0.41511902  0.80771135     0.82000
N1240       N  0.79250266  0.40430114  0.82306637    -0.78700
C1241       C  0.81259491  0.42503265  0.84778091     0.82100
N1242       N  0.80932651  0.45686332  0.85707679    -0.80400
C1243       C  0.90230395  0.33428469  0.87584753     0.79500
N1244       N  0.87930351  0.34574184  0.86025535    -0.78800
C1245       C  0.87558269  0.37742409  0.86935943     0.82000
N1246       N  0.89508069  0.39813846  0.89425875    -0.78700
C1247       C  0.91838926  0.38745547  0.90996601     0.82100
N1248       N  0.92165080  0.35510185  0.90095511    -0.80400
C1249       C  0.95423878  0.30131206  0.50789787     0.79500
N1250       N  0.93387832  0.28020298  0.48313261    -0.78800
C1251       C  0.93729819  0.24812072  0.47363000     0.82000
N1252       N  0.96176298  0.23807262  0.48848524    -0.78700
C1253       C  0.98220460  0.25913951  0.51300280     0.82100
N1254       N  0.97827010  0.29045195  0.52261529    -0.80400
C1255       C  0.56961549  0.16657999  0.54243054     0.79500
N1256       N  0.54777751  0.17892360  0.52628390    -0.78800
C1257       C  0.54454285  0.21096155  0.53517153     0.82000
N1258       N  0.56327815  0.23109309  0.56046095    -0.78700
C1259       C  0.58540694  0.21953301  0.57678481     0.82100
N1260       N  0.58827524  0.18687356  0.56792558    -0.80400
C1261       C  0.88560087  0.29923946  0.01057295     0.79500
N1262       N  0.85136697  0.28707599  0.02664348    -0.78800
C1263       C  0.81610226  0.25497437  0.01777488     0.82000
N1264       N  0.81479207  0.23468888  0.99261827    -0.78700
C1265       C  0.84851832  0.24613214  0.97641199     0.82100
N1266       N  0.88401393  0.27879031  0.98522106    -0.80400
C1267       C  0.63538087  0.16449799  0.04423586     0.79500
N1268       N  0.63603171  0.18558517  0.06895934    -0.78800
C1269       C  0.67148446  0.21766168  0.07848432     0.82000
N1270       N  0.70603019  0.22777294  0.06371412    -0.78700
C1271       C  0.70552951  0.20675090  0.03924080     0.82100
N1272       N  0.67033427  0.17537955  0.02958050    -0.80400
C1273       C  0.96805297  0.33092258  0.37754048     0.79500
N1274       N  0.96886644  0.35154860  0.40259838    -0.78800
C1275       C  0.00414907  0.38417511  0.41175909     0.82000
N1276       N  0.53844917  0.39539858  0.39619182    -0.78700
C1277       C  0.53775673  0.37491759  0.37129408     0.82100
N1278       N  0.00268838  0.34290463  0.36211004    -0.80400
C1279       C  0.71833516  0.46548752  0.34296202     0.79500
N1280       N  0.68382001  0.45426790  0.35840577    -0.78800
C1281       C  0.64833222  0.42279195  0.34919402     0.82000
N1282       N  0.64709525  0.40199386  0.32432333    -0.78700
C1283       C  0.68115359  0.41242427  0.30874666     0.82100
N1284       N  0.71684717  0.44461660  0.31787117    -0.80400
C1285       C  0.62006458  0.13442994  0.17474101     0.79500
N1286       N  0.60007220  0.11370546  0.14978271    -0.78800
C1287       C  0.60282284  0.08117305  0.14055526     0.82000
N1288       N  0.62619168  0.07016345  0.15592000    -0.78700
C1289       C  0.64621734  0.09078013  0.18069974     0.82100
N1290       N  0.64301901  0.12265848  0.18999736    -0.80400
C1291       C  0.73584101  0.99989916  0.20903255     0.79500
N1292       N  0.75515019  0.02071698  0.23416412    -0.78800
C1293       C  0.75180888  0.05302925  0.24320406     0.82000
N1294       N  0.72844879  0.06365536  0.22748628    -0.78700
C1295       C  0.70898053  0.04293521  0.20256819     0.82100
N1296       N  0.71279362  0.01130891  0.19345159    -0.80400
C1297       C  0.52443131  0.27528445  0.84160483     0.79500
N1298       N  0.54529832  0.27590306  0.81674479    -0.78800
C1299       C  0.57777210  0.31120764  0.80742401     0.82000
N1300       N  0.58854533  0.34566751  0.82258886    -0.78700
C1301       C  0.56777776  0.34517644  0.84723742     0.82100
N1302       N  0.53597878  0.31011731  0.85663166    -0.80400
C1303       C  0.65930578  0.02552131  0.87592502     0.79500
N1304       N  0.64786173  0.49114308  0.86019154    -0.78800
C1305       C  0.61614421  0.45570857  0.86921183     0.82000
N1306       N  0.59542305  0.45439626  0.89412906    -0.78700
C1307       C  0.60615665  0.98827132  0.91001034     0.82100
N1308       N  0.63850501  0.02393078  0.90106868    -0.80400
C1309       C  0.86009657  0.37557303  0.67709436     0.79500
N1310       N  0.88059730  0.39447704  0.65175088    -0.78800
C1311       C  0.91283571  0.39104367  0.64266540     0.82000
N1312       N  0.92373382  0.36807203  0.65856790    -0.78700
C1313       C  0.90337329  0.34906574  0.68370156     0.82100
N1314       N  0.87177217  0.35288491  0.69285418    -0.80400
C1315       C  0.99492509  0.26034115  0.71159980     0.79500
N1316       N  0.98356208  0.28372359  0.69650489    -0.78800
C1317       C  0.95194947  0.28729308  0.70590926     0.82000
N1318       N  0.93118748  0.26725125  0.73061486    -0.78700
C1319       C  0.94177093  0.24350119  0.74584955     0.82100
N1320       N  0.97406215  0.24033338  0.73653599    -0.80400
C1321       C  0.69116662  0.10718496  0.50831758     0.79500
N1322       N  0.70266217  0.14192821  0.52345936    -0.78800
C1323       C  0.73433512  0.17710357  0.51410244     0.82000
N1324       N  0.75511713  0.17778138  0.48938951    -0.78700
C1325       C  0.74447721  0.14339829  0.47412411     0.82100
N1326       N  0.71205075  0.10799197  0.48339455    -0.80400
C1327       C  0.82537352  0.35747453  0.54273978     0.79500
N1328       N  0.80482265  0.35595343  0.56802923    -0.78800
C1329       C  0.77238953  0.32037585  0.57704632     0.82000
N1330       N  0.76135162  0.28643738  0.56112099    -0.78700
C1331       C  0.78179479  0.28770634  0.53602547     0.82100
N1332       N  0.81355079  0.32309253  0.52695327    -0.80400
C1333       C  0.69358273  0.04246336  0.01006295     0.79500
N1334       N  0.71445739  0.06188670  0.98499943    -0.78800
C1335       C  0.74678023  0.05858753  0.97597634     0.82000
N1336       N  0.75737619  0.03516270  0.99162795    -0.78700
C1337       C  0.73660266  0.01557661  0.01648656     0.82100
N1338       N  0.70494164  0.01933538  0.02559897    -0.80400
C1339       C  0.82816296  0.42667123  0.04391783     0.79500
N1340       N  0.80735889  0.40648114  0.06880961    -0.78800
C1341       C  0.77485008  0.40923789  0.07811589     0.82000
N1342       N  0.76397205  0.43281707  0.06289736    -0.78700
C1343       C  0.78466662  0.45303750  0.03820053     0.82100
N1344       N  0.81650712  0.44983095  0.02882362    -0.80400
C1345       C  0.66140464  0.09239668  0.37755428     0.79500
N1346       N  0.64994204  0.11567977  0.36242619    -0.78800
C1347       C  0.61827093  0.11918877  0.37177695     0.82000
N1348       N  0.59744012  0.09904835  0.39646766    -0.78700
C1349       C  0.60803756  0.07527193  0.41172950     0.82100
N1350       N  0.64047564  0.07229153  0.40246488    -0.80400
C1351       C  0.52733521  0.20858298  0.34320855     0.79500
N1352       N  0.53925305  0.18613664  0.35903350    -0.78800
C1353       C  0.57098171  0.18248881  0.34993668     0.82000
N1354       N  0.59131650  0.20153813  0.32477737    -0.78700
C1355       C  0.58021347  0.22434513  0.30880337     0.82100
N1356       N  0.54779250  0.22751183  0.31784600    -0.80400
C1357       C  0.99259526  0.19187315  0.20865070     0.79500
N1358       N  0.97198549  0.19045228  0.23390784    -0.78800
C1359       C  0.93961316  0.15485615  0.24300631     0.82000
N1360       N  0.92872043  0.12089060  0.22721246    -0.78700
C1361       C  0.94918860  0.12206344  0.20218508     0.82100
N1362       N  0.98088936  0.15741108  0.19301313    -0.80400
C1363       C  0.85850262  0.44152459  0.17501993     0.79500
N1364       N  0.86991179  0.47628551  0.19012259    -0.78800
C1365       C  0.90156243  0.01142290  0.18077093     0.82000
N1366       N  0.92236857  0.01208929  0.15609740    -0.78700
C1367       C  0.91180740  0.47778497  0.14083718     0.82100
N1368       N  0.87943020  0.44236086  0.15012185    -0.80400
C1369       C  0.78283501  0.27328896  0.34385168     0.79500
N1370       N  0.80480289  0.30754544  0.35991661    -0.78800
C1371       C  0.80801049  0.34281569  0.35100074     0.82000
N1372       N  0.78907817  0.34411124  0.32578910    -0.78700
C1373       C  0.76680791  0.31035592  0.30955907     0.82100
N1374       N  0.76400457  0.27485731  0.31842996    -0.80400
C1375       C  0.89930293  0.02366858  0.37740355     0.79500
N1376       N  0.87544104  0.48874255  0.36262896    -0.78800
C1377       C  0.87152312  0.45350482  0.37229437     0.82000
N1378       N  0.89175210  0.45290919  0.39695157    -0.78700
C1379       C  0.91605097  0.98746516  0.41186406     0.82100
N1380       N  0.91942945  0.02292398  0.40231068    -0.80400
C1381       C  0.73328398  0.19139473  0.71087906     0.79500
N1382       N  0.75302331  0.19059895  0.73596479    -0.78800
C1383       C  0.75046848  0.15537107  0.74509437     0.82000
N1384       N  0.72756393  0.12109747  0.72947653    -0.78700
C1385       C  0.70780384  0.12173945  0.70455017     0.82100
N1386       N  0.71078300  0.15677387  0.69537148    -0.80400
C1387       C  0.61762964  0.44102152  0.67663671     0.79500
N1388       N  0.59820396  0.44242041  0.65155754    -0.78800
C1389       C  0.60176228  0.47808523  0.64234855     0.82000
N1390       N  0.62552196  0.01221358  0.65778791    -0.78700
C1391       C  0.64512709  0.01107132  0.68265831     0.82100
N1392       N  0.64104937  0.47559966  0.69198986    -0.80400
C1393       C  0.88425863  0.03910547  0.50866938     0.79500
N1394       N  0.84953859  0.01630368  0.52397653    -0.78800
C1395       C  0.81446740  0.01308862  0.51461941     0.82000
N1396       N  0.81387782  0.03295575  0.48973955    -0.78700
C1397       C  0.84823781  0.05620666  0.47431708     0.82100
N1398       N  0.88351646  0.05896271  0.48360840    -0.80400
C1399       C  0.63379722  0.42261434  0.54241454     0.79500
N1400       N  0.66825632  0.44566041  0.52683029    -0.78800
C1401       C  0.70370785  0.44952234  0.53598058     0.82000
N1402       N  0.70495596  0.43007910  0.56090572    -0.78700
C1403       C  0.67097166  0.40670029  0.57660648     0.82100
N1404       N  0.63531225  0.40332821  0.56755674    -0.80400
C1405       C  0.80140801  0.25700056  0.20914147     0.79500
N1406       N  0.83595444  0.28017373  0.19371845    -0.78800
C1407       C  0.87139940  0.28423350  0.20306157     0.82000
N1408       N  0.87257174  0.26484754  0.22805915    -0.78700
C1409       C  0.83847093  0.24131755  0.24363203     0.82100
N1410       N  0.80280719  0.23776477  0.23436207    -0.80400
C1411       C  0.55164319  0.37302109  0.17475527     0.79500
N1412       N  0.55080107  0.39312162  0.14984927    -0.78800
C1413       C  0.51549156  0.39059640  0.14083411     0.82000
N1414       N  0.98126263  0.36732766  0.15639117    -0.78700
C1415       C  0.98196940  0.34720844  0.18109488     0.82100
N1416       N  0.51701845  0.35020776  0.19014459    -0.80400
C1417       C  0.95037321  0.10809696  0.01023321     0.79500
N1418       N  0.93092076  0.10956139  0.98515940    -0.78800
C1419       C  0.93424387  0.14521633  0.97612257     0.82000
N1420       N  0.95772144  0.17921701  0.99176483    -0.78700
C1421       C  0.97731134  0.17799908  0.01660905     0.82100
N1422       N  0.97351758  0.14258200  0.02574477    -0.80400
C1423       C  0.56672691  0.35831283  0.04391538     0.79500
N1424       N  0.58695577  0.35757527  0.06878412    -0.78800
C1425       C  0.58425249  0.32224061  0.07794314     0.82000
N1426       N  0.56069654  0.28790192  0.06262237    -0.78700
C1427       C  0.54045237  0.28850630  0.03798893     0.82100
N1428       N  0.54360463  0.32357283  0.02874191    -0.80400
C1429       C  0.71766321  0.20644287  0.84216364     0.79500
N1430       N  0.68268540  0.18247717  0.85682483    -0.78800
C1431       C  0.64752248  0.17869789  0.84712775     0.82000
N1432       N  0.64708397  0.19916072  0.82258658    -0.78700
C1433       C  0.68167256  0.22352199  0.80780675     0.82100
N1434       N  0.71707876  0.22684117  0.81738699    -0.80400
C1435       C  0.96720637  0.09016937  0.87549060     0.79500
N1436       N  0.96879949  0.07118057  0.90079135    -0.78800
C1437       C  0.00433750  0.07407260  0.90961312     0.82000
N1438       N  0.53814053  0.09668672  0.89351893    -0.78700
C1439       C  0.53684380  0.11580866  0.86842819     0.82100
N1440       N  0.00147387  0.11240851  0.85949513    -0.80400
O1441       O  0.87334455  0.10040614  0.78316273    -0.80800
O1442       O  0.71502196  0.09036939  0.88788693    -0.82400
O1443       O  0.77615266  0.02384731  0.83126191    -0.79400
O1444       O  0.76247811  0.11931481  0.78334683    -0.77800
O1445       O  0.79890678  0.18833845  0.78217435    -0.79600
O1446       O  0.81079418  0.02507683  0.87336134    -0.80500
O1447       O  0.71614733  0.05843699  0.84488365    -0.81800
O1448       O  0.80434320  0.06788245  0.78199752    -0.82100
Eu1449     Eu  0.78525280  0.09207897  0.82521357     2.39200
O1450       O  0.78484609  0.14931042  0.84278511    -0.89600
O1451       O  0.84385928  0.09302897  0.84261411    -0.93200
C1452       C  0.83850373  0.07484493  0.77176843     1.01500
C1453       C  0.69858570  0.06124708  0.86867363     1.01300
C1454       C  0.78997491  0.00769814  0.84967894     1.01200
C1455       C  0.77181487  0.15411663  0.77194613     0.99100
H1456       H  0.76472613  0.06628787  0.88551108     0.28800
O1457       O  0.78641182  0.09131603  0.87790336    -1.02000
H1458       H  0.84290644  0.15040778  0.78618176     0.28900
O1459       O  0.84288963  0.15036645  0.80776476    -1.04600
O1460       O  0.81157750  0.19787712  0.93808738    -0.81800
O1461       O  0.96925568  0.20979375  0.83117207    -0.81300
O1462       O  0.79531178  0.07048295  0.93775208    -0.79800
O1463       O  0.78323530  0.21712503  0.83168002    -0.83100
O1464       O  0.89305604  0.23108391  0.78375946    -0.81000
O1465       O  0.90266993  0.08173275  0.88762148    -0.79600
O1466       O  0.92255083  0.18203701  0.93783098    -0.81100
O1467       O  0.91140197  0.27849535  0.88770967    -0.83100
O1468       O  0.88708189  0.11293798  0.93847314    -0.79800
O1469       O  0.87787928  0.27723998  0.84493489    -0.82500
O1470       O  0.76168269  0.10594489  0.93850485    -0.78200
O1471       O  0.93468073  0.11497934  0.84471023    -0.78200
O1472       O  0.92527898  0.19429459  0.78235485    -0.77900
O1473       O  0.74991289  0.18235756  0.87378156    -0.81400
O1474       O  0.88068947  0.23191171  0.93838988    -0.80800
O1475       O  0.96811697  0.24334515  0.87322150    -0.79100
Eu1476     Eu  0.78419888  0.14855931  0.89527446     2.39800
Eu1477     Eu  0.90102275  0.15061258  0.82515259     2.39600
Eu1478     Eu  0.84477385  0.09309813  0.89508424     2.38400
Eu1479     Eu  0.84235200  0.20805461  0.82530836     2.39900
Eu1480     Eu  0.90024964  0.20921950  0.89507164     2.39800
O1481       O  0.89988588  0.20819730  0.84263363    -0.93500
O1482       O  0.84314731  0.15031416  0.91200614    -0.92400
C1483       C  0.84653339  0.22377830  0.94923602     1.01600
C1484       C  0.98541022  0.23984123  0.84952782     1.00300
C1485       C  0.76951760  0.07955092  0.94905616     0.99700
C1486       C  0.75326519  0.20314173  0.85011002     1.01800
C1487       C  0.91856368  0.22174179  0.77237801     1.00700
C1488       C  0.93175506  0.09434917  0.86839479     0.99500
C1489       C  0.91341468  0.14712185  0.94912108     0.99600
C1490       C  0.89855193  0.29490290  0.86860096     1.02200
H1491       H  0.92707528  0.15584691  0.88540145     0.29600
O1492       O  0.90207044  0.15262371  0.87783864    -1.05700
H1493       H  0.83739065  0.22873588  0.88566599     0.31600
O1494       O  0.84065556  0.20702315  0.87800496    -1.08300
O1495       O  0.93018923  0.43591738  0.94823942    -0.80800
O1496       O  0.57680279  0.42370080  0.05455448    -0.82400
O1497       O  0.55753662  0.45147383  0.94811933    -0.79400
O1498       O  0.95006336  0.35529686  0.99838630    -0.77800
O1499       O  0.91808811  0.35650564  0.04133642    -0.79600
O1500       O  0.59123541  0.02054352  0.94756908    -0.80500
O1501       O  0.54193007  0.39027108  0.01253647    -0.81800
O1502       O  0.96554720  0.40217637  0.94754104    -0.82100
Eu1503     Eu  0.50804046  0.42446986  0.99080727     2.39200
O1504       O  0.00882247  0.42513967  0.04329227    -0.89600
O1505       O  0.50969256  0.48336685  0.97395478    -0.93200
C1506       C  0.93924678  0.41010976  0.93694150     1.01500
C1507       C  0.56288189  0.39371599  0.03615065     1.01300
C1508       C  0.58337018  0.48638740  0.93688571     1.01200
C1509       C  0.92100913  0.33884002  0.01764168     0.99100
H1510       H  0.58816607  0.47769303  0.00031697     0.28800
O1511       O  0.56646462  0.48099037  0.00795221    -1.02000
H1512       H  0.92586337  0.40510630  0.00058767     0.28900
O1513       O  0.95088168  0.42686135  0.00815610    -1.04600
O1514       O  0.59049827  0.03288108  0.10241886    -0.81800
O1515       O  0.94135147  0.04325281  0.99835525    -0.81300
O1516       O  0.63784997  0.05162766  0.99817310    -0.79800
O1517       O  0.97922401  0.40298297  0.10278138    -0.83100
O1518       O  0.88349052  0.41665757  0.05455804    -0.81000
O1519       O  0.54130177  0.06265138  0.94795898    -0.79600
O1520       O  0.56968245  0.10973488  0.05465890    -0.81100
O1521       O  0.96017541  0.01403997  0.10273778    -0.83100
O1522       O  0.60295744  0.10837601  0.01250334    -0.79800
O1523       O  0.92787369  0.44507347  0.10398142    -0.82500
O1524       O  0.63661175  0.01821572  0.04100803    -0.78200
O1525       O  0.97220377  0.02750480  0.94761598    -0.78200
O1526       O  0.88471797  0.45137355  0.01249867    -0.77900
O1527       O  0.54821892  0.43935813  0.10382377    -0.81400
O1528       O  0.55399479  0.06539873  0.10377615    -0.80800
O1529       O  0.97483887  0.07542335  0.04115932    -0.79100
Eu1530     Eu  0.56752459  0.48271073  0.06063801     2.39800
Eu1531     Eu  0.95270683  0.48529763  0.99095606     2.39600
Eu1532     Eu  0.56859949  0.04048894  0.99077065     2.38400
Eu1533     Eu  0.95172717  0.42573341  0.06084127     2.39900
Eu1534     Eu  0.51033011  0.04165082  0.06080826     2.39800
O1535       O  0.95274691  0.48444314  0.04343472    -0.93500
O1536       O  0.56772362  0.04026092  0.04324156    -0.92400
C1537       C  0.58121324  0.05836639  0.11385547     1.01600
C1538       C  0.95416451  0.07246431  0.01748650     1.00300
C1539       C  0.65425160  0.03880934  0.01731378     0.99700
C1540       C  0.01407799  0.41220082  0.11410281     1.01800
C1541       C  0.86734290  0.43048788  0.03613301     1.00700
C1542       C  0.50635318  0.05362083  0.93678108     0.99500
C1543       C  0.59967557  0.12571500  0.03624585     0.99600
C1544       C  0.93478692  0.47923612  0.11412639     1.02200
H1545       H  0.51547462  0.06760085  0.00049482     0.29600
O1546       O  0.51220910  0.04259989  0.00810737    -1.05700
H1547       H  0.51002379  0.48344486  0.09973025     0.31600
O1548       O  0.50995487  0.48344491  0.07814881    -1.08300
O1549       O  0.92447818  0.19919652  0.43575014    -0.80800
O1550       O  0.77449543  0.20873249  0.33187040    -0.82400
O1551       O  0.90275119  0.27550150  0.38824803    -0.79400
O1552       O  0.79319745  0.17967551  0.43617356    -0.77800
O1553       O  0.76071845  0.11065625  0.43724268    -0.79600
O1554       O  0.93617567  0.27432561  0.34613480    -0.80500
O1555       O  0.80796294  0.24095083  0.37467553    -0.81800
O1556       O  0.88762395  0.23134198  0.43728832    -0.82100
Eu1557     Eu  0.84361259  0.20723411  0.39443069     2.39200
O1558       O  0.78609230  0.14995804  0.37684081    -0.89600
O1559       O  0.90112427  0.20604721  0.37684617    -0.93200
C1560       C  0.91519452  0.22471082  0.44719145     1.01500
C1561       C  0.78718492  0.23791018  0.35102455     1.01300
C1562       C  0.93270512  0.29167689  0.36980346     1.01200
C1563       C  0.76759908  0.14480394  0.44746240     0.99100
H1564       H  0.84868703  0.23313119  0.33421624     0.28800
O1565       O  0.84548225  0.20812324  0.34174617    -1.02000
H1566       H  0.84326948  0.14890772  0.43330583     0.28900
O1567       O  0.84325017  0.14893728  0.41172176    -1.04600
O1568       O  0.76357863  0.10151314  0.28153710    -0.81800
O1569       O  0.91002038  0.08930020  0.38787620    -0.81300
O1570       O  0.87507432  0.22921449  0.28183692    -0.79800
O1571       O  0.71665547  0.08210977  0.38809033    -0.83100
O1572       O  0.81216200  0.06828548  0.43604145    -0.81000
O1573       O  0.97137691  0.21760206  0.33156170    -0.79600
O1574       O  0.89122072  0.11796796  0.28135561    -0.81100
O1575       O  0.78338486  0.02115253  0.33126809    -0.83100
O1576       O  0.92492574  0.18706544  0.28089863    -0.79800
O1577       O  0.75130508  0.02212947  0.37423829    -0.82500
O1578       O  0.80598253  0.19396803  0.28124630    -0.78200
O1579       O  0.97026279  0.18402724  0.37426877    -0.78200
O1580       O  0.88118444  0.10486168  0.43729179    -0.77900
O1581       O  0.71795277  0.11688022  0.34604411    -0.81400
O1582       O  0.79908906  0.06792972  0.28077544    -0.80800
O1583       O  0.87529624  0.05602895  0.34574360    -0.79100
Eu1584     Eu  0.78600114  0.15092223  0.32433766     2.39800
Eu1585     Eu  0.90105594  0.14850782  0.39417713     2.39600
Eu1586     Eu  0.90208586  0.20642508  0.32436130     2.38400
Eu1587     Eu  0.78494812  0.09122351  0.39418583     2.39900
Eu1588     Eu  0.84160956  0.09041424  0.32407887     2.39800
O1589       O  0.84230235  0.09106307  0.37658827    -0.93500
O1590       O  0.84321187  0.14932436  0.30730220    -0.92400
C1591       C  0.77269260  0.07574908  0.27020020     1.01600
C1592       C  0.89603207  0.05932458  0.36944539     1.00300
C1593       C  0.84020322  0.22031621  0.27061880     0.99700
C1594       C  0.70054159  0.09601749  0.36970354     1.01800
C1595       C  0.84697342  0.07765562  0.44747538     1.00700
C1596       C  0.98787546  0.20475108  0.35058347     0.99500
C1597       C  0.91704418  0.15292630  0.27013471     0.99600
C1598       C  0.75416848  0.00464237  0.35040489     1.02200
H1599       H  0.92166819  0.14362672  0.33377698     0.29600
O1600       O  0.89996278  0.14688048  0.34146003    -1.05700
H1601       H  0.75931081  0.07088890  0.33382030     0.31600
O1602       O  0.78431108  0.09256150  0.34147829    -1.08300
O1603       O  0.73572753  0.44289173  0.72146086    -0.80800
O1604       O  0.72387478  0.28380339  0.61539346    -0.82400
O1605       O  0.80428558  0.38450850  0.66524903    -0.79400
O1606       O  0.70781670  0.39521862  0.61496327    -0.77800
O1607       O  0.63871035  0.35975587  0.61439186    -0.79600
O1608       O  0.80323424  0.35149085  0.70826176    -0.80500
O1609       O  0.75775845  0.35289649  0.61472370    -0.81800
O1610       O  0.76920492  0.44147212  0.67946080    -0.82100
Eu1611     Eu  0.73508914  0.37324605  0.65783834     2.39200
O1612       O  0.67619395  0.31591435  0.64106005    -0.89600
O1613       O  0.73435051  0.37344338  0.71033197    -0.93200
C1614       C  0.76572222  0.45900030  0.70305746     1.01500
C1615       C  0.74979109  0.31864250  0.60410621     1.01300
C1616       C  0.82077570  0.37189136  0.68445138     1.01200
C1617       C  0.67288661  0.38602426  0.60368254     0.99100
H1618       H  0.75454117  0.31051120  0.66777762     0.28800
O1619       O  0.73280603  0.31380293  0.67534131    -1.02000
H1620       H  0.68181804  0.39997163  0.66729749     0.28900
O1621       O  0.67849590  0.37499712  0.67500604    -1.04600
O1622       O  0.61663728  0.18774814  0.66547709    -0.81800
O1623       O  0.62628524  0.34717432  0.76936257    -0.81300
O1624       O  0.74291556  0.25658613  0.72171999    -0.79800
O1625       O  0.59674268  0.26789489  0.61515934    -0.83100
O1626       O  0.60811591  0.37592301  0.66503139    -0.81000
O1627       O  0.75671057  0.36646309  0.76973667    -0.79600
O1628       O  0.64562707  0.23581386  0.76971277    -0.81100
O1629       O  0.54983435  0.24957328  0.72203313    -0.83100
O1630       O  0.71463606  0.27265852  0.77117482    -0.79800
O1631       O  0.55114338  0.28419230  0.67988654    -0.82500
O1632       O  0.70850995  0.22318447  0.67953678    -0.78200
O1633       O  0.72015324  0.39891747  0.77078649    -0.78200
O1634       O  0.64129558  0.40812423  0.70793169    -0.77900
O1635       O  0.63193560  0.23399491  0.61488527    -0.81400
O1636       O  0.58422392  0.18908025  0.70813276    -0.80800
O1637       O  0.59397204  0.27816298  0.77087180    -0.79100
Eu1638     Eu  0.67445756  0.25710399  0.65814024     2.39800
Eu1639     Eu  0.67674001  0.37452502  0.72770251     2.39600
Eu1640     Eu  0.73402946  0.31592881  0.72801563     2.38400
Eu1641     Eu  0.61895946  0.31758026  0.65784832     2.39900
Eu1642     Eu  0.61797000  0.25839213  0.72794474     2.39800
O1643       O  0.61923249  0.31708184  0.71031486    -0.93500
O1644       O  0.67535378  0.25818374  0.71064392    -0.92400
C1645       C  0.58729162  0.17135330  0.68449148     1.01600
C1646       C  0.60080886  0.31239953  0.78083664     1.00300
C1647       C  0.72928215  0.22667985  0.70321785     0.99700
C1648       C  0.60579800  0.24197073  0.60402496     1.01800
C1649       C  0.62091937  0.40520465  0.68411991     1.00700
C1650       C  0.74739543  0.39204322  0.78102283     0.99500
C1651       C  0.68043690  0.24527390  0.78119841     0.99600
C1652       C  0.53382241  0.26358911  0.70365631     1.02200
H1653       H  0.67617763  0.31643212  0.76692511     0.29600
O1654       O  0.67618803  0.31632930  0.74534244    -1.05700
H1655       H  0.59208116  0.23746447  0.66765473     0.31600
O1656       O  0.61706593  0.25922524  0.67526039    -1.08300
O1657       O  0.70757414  0.26626295  0.11643189    -0.80800
O1658       O  0.54843222  0.25655053  0.22041399    -0.82400
O1659       O  0.61006831  0.18977813  0.16403616    -0.79400
O1660       O  0.59651559  0.28589545  0.11597269    -0.77800
O1661       O  0.63312422  0.35491641  0.11483915    -0.79600
O1662       O  0.64457056  0.19089421  0.20619631    -0.80500
O1663       O  0.54966597  0.22432242  0.17761412    -0.81800
O1664       O  0.63855746  0.23407825  0.11488194    -0.82100
Eu1665     Eu  0.61897149  0.25800566  0.15783662     2.39200
O1666       O  0.61864471  0.31524167  0.17532248    -0.89600
O1667       O  0.67771387  0.25915369  0.17533393    -0.93200
C1668       C  0.67276895  0.24083773  0.10496107     1.01500
C1669       C  0.53198953  0.22733642  0.20130391     1.01300
C1670       C  0.62382835  0.17359103  0.18249835     1.01200
C1671       C  0.60588039  0.32078222  0.10462610     0.99100
H1672       H  0.59820740  0.23203531  0.21805312     0.28800
O1673       O  0.61998935  0.25704316  0.21050020    -1.02000
H1674       H  0.67696082  0.31634008  0.11900080     0.28900
O1675       O  0.67690045  0.31628838  0.14058321    -1.04600
O1676       O  0.64451869  0.36377752  0.27050745    -0.81800
O1677       O  0.80336145  0.37604159  0.16431109    -0.81300
O1678       O  0.62872858  0.23613983  0.27047543    -0.79800
O1679       O  0.61704507  0.38299628  0.16406130    -0.83100
O1680       O  0.72653886  0.39689108  0.11627091    -0.81000
O1681       O  0.73634484  0.24757116  0.22059579    -0.79600
O1682       O  0.75561266  0.34733664  0.27104674    -0.81100
O1683       O  0.74496075  0.44413805  0.22086249    -0.83100
O1684       O  0.72047024  0.27823481  0.27132812    -0.79800
O1685       O  0.71181717  0.44310820  0.17792791    -0.82500
O1686       O  0.59484708  0.27134690  0.27097106    -0.78200
O1687       O  0.76880382  0.28122056  0.17790922    -0.78200
O1688       O  0.75899118  0.36032810  0.11494061    -0.77900
O1689       O  0.58356491  0.34816324  0.20607298    -0.81400
O1690       O  0.71361300  0.39740866  0.27129642    -0.80800
O1691       O  0.80194179  0.40920854  0.20650718    -0.79100
Eu1692     Eu  0.61770956  0.31428140  0.22781137     2.39800
Eu1693     Eu  0.73516071  0.31677452  0.15805840     2.39600
Eu1694     Eu  0.67834223  0.25881163  0.22782733     2.38400
Eu1695     Eu  0.67631327  0.37399324  0.15804635     2.39900
Eu1696     Eu  0.73382504  0.37486097  0.22810876     2.39800
O1697       O  0.73386356  0.37422115  0.17559981    -0.93500
O1698       O  0.67653979  0.31590036  0.24477905    -0.92400
C1699       C  0.67937651  0.38960407  0.28182728     1.01600
C1700       C  0.81940022  0.40594909  0.18280566     1.00300
C1701       C  0.60278933  0.24509179  0.28168586     0.99700
C1702       C  0.58703280  0.36909828  0.18245505     1.01800
C1703       C  0.75200490  0.38757273  0.10482753     1.00700
C1704       C  0.76571730  0.26053121  0.20160569     0.99500
C1705       C  0.74650031  0.31236627  0.28224277     0.99600
C1706       C  0.73226312  0.46064399  0.20171748     1.02200
H1707       H  0.76073631  0.32166953  0.21846775     0.29600
O1708       O  0.73577477  0.31840020  0.21076964    -1.05700
H1709       H  0.67103693  0.39438503  0.21834786     0.31600
O1710       O  0.67436011  0.37269800  0.21072012    -1.08300
O1711       O  0.97763559  0.03036543  0.60441701    -0.80800
O1712       O  0.63596343  0.04166596  0.49778032    -0.82400
O1713       O  0.58963675  0.01458303  0.60414234    -0.79400
O1714       O  0.57803764  0.11043540  0.55429929    -0.77800
O1715       O  0.54464158  0.10930185  0.51148074    -0.79600
O1716       O  0.55412838  0.44549697  0.60499458    -0.80500
O1717       O  0.63457777  0.07520120  0.53975580    -0.81800
O1718       O  0.54682591  0.06405729  0.60494499    -0.82100
Eu1719     Eu  0.56663364  0.04119538  0.56160544     2.39200
O1720       O  0.56648995  0.04026661  0.50910582    -0.89600
O1721       O  0.50948087  0.48236486  0.57875683    -0.93200
C1722       C  0.51264818  0.05619141  0.61566246     1.01500
C1723       C  0.65203142  0.07170375  0.51614514     1.01300
C1724       C  0.58061387  0.47975386  0.61548271     1.01200
C1725       C  0.56535538  0.12694728  0.53517642     0.99100
H1726       H  0.59343143  0.98784059  0.55196626     0.28800
O1727       O  0.56837970  0.48458008  0.54442740    -1.02000
H1728       H  0.50389366  0.06067413  0.55190603     0.28900
O1729       O  0.50712552  0.03892158  0.54429916    -1.04600
O1730       O  0.54031727  0.43241594  0.44996695    -0.81800
O1731       O  0.88125879  0.42240403  0.55443710    -0.81300
O1732       O  0.56904703  0.41373469  0.55441117    -0.79800
O1733       O  0.55932798  0.06284920  0.44975312    -0.83100
O1734       O  0.94956152  0.04900341  0.49795873    -0.81000
O1735       O  0.96132626  0.40260912  0.60441299    -0.79600
O1736       O  0.94304341  0.35597855  0.49767168    -0.81100
O1737       O  0.92840894  0.45132470  0.45000675    -0.83100
O1738       O  0.97771091  0.35732811  0.53980770    -0.79800
O1739       O  0.96518551  0.02038713  0.44855772    -0.82500
O1740       O  0.60105749  0.44694047  0.51146698    -0.78200
O1741       O  0.92764621  0.43802922  0.60492327    -0.78200
O1742       O  0.91621859  0.01444216  0.54011734    -0.77900
O1743       O  0.59176004  0.02626760  0.44859971    -0.81400
O1744       O  0.97125586  0.40007448  0.44868374    -0.80800
O1745       O  0.88233955  0.39010396  0.51162701    -0.79100
Eu1746     Eu  0.56762721  0.98268914  0.49169517     2.39800
Eu1747     Eu  0.95050121  0.48063875  0.56171913     2.39600
Eu1748     Eu  0.51114538  0.42513637  0.56185927     2.38400
Eu1749     Eu  0.50894151  0.04003079  0.49159688     2.39900
Eu1750     Eu  0.95150289  0.42398349  0.49174644     2.39800
O1751       O  0.95133105  0.48134948  0.50921046    -0.93500
O1752       O  0.51030082  0.42526246  0.50937504    -0.92400
C1753       C  0.50549624  0.40696127  0.43856699     1.01600
C1754       C  0.86476907  0.39310256  0.53536729     1.00300
C1755       C  0.59815768  0.42639241  0.53519445     0.99700
C1756       C  0.58489294  0.05355254  0.43840711     1.01800
C1757       C  0.91963282  0.03523629  0.51643602     1.00700
C1758       C  0.93546840  0.41169862  0.61560702     0.99500
C1759       C  0.95715058  0.34001773  0.51601467     0.99600
C1760       C  0.93776115  0.48612596  0.43853535     1.02200
H1761       H  0.93100503  0.39829063  0.55210264     0.29600
O1762       O  0.95269005  0.42330107  0.54446970    -1.05700
H1763       H  0.50930396  0.48212933  0.45265053     0.31600
O1764       O  0.50932219  0.48217121  0.47423455    -1.08300
C1765       C  0.61010678  0.15095208  0.86257769    -0.17100
C1766       C  0.57392682  0.14259636  0.85214805    -0.32300
H1767       H  0.61253431  0.13689705  0.88297051     0.11900
H1768       H  0.57145610  0.15663054  0.83175885     0.12500
C1769       C  0.00476211  0.21511273  0.03257984    -0.17100
C1770       C  0.51318157  0.25124305  0.02216977    -0.32300
H1771       H  0.51831203  0.21243318  0.05313148     0.11900
H1772       H  0.49930996  0.25377650  0.00171170     0.12500
C1773       C  0.90848378  0.31152330  0.18693427    -0.17100
C1774       C  0.94481115  0.32024257  0.19723491    -0.32300
H1775       H  0.90578662  0.32515167  0.16640213     0.11900
H1776       H  0.94747911  0.30652915  0.21773281     0.12500
C1777       C  0.77713838  0.48596736  0.53056282    -0.17100
C1778       C  0.74083447  0.47688313  0.51992465    -0.32300
H1779       H  0.77970258  0.47249142  0.55122125     0.11900
H1780       H  0.73821857  0.49033063  0.49926991     0.12500
C1781       C  0.68110658  0.08451330  0.68836959    -0.17100
C1782       C  0.67249311  0.04821763  0.69871598    -0.32300
H1783       H  0.66741570  0.08709278  0.66783028     0.11900
H1784       H  0.68613277  0.04559358  0.71926724     0.12500
C1785       C  0.84380899  0.41616837  0.35669482    -0.17100
C1786       C  0.83466531  0.37987505  0.36738176    -0.32300
H1787       H  0.83039430  0.41874305  0.33600677     0.11900
H1788       H  0.84807387  0.37727503  0.38806226     0.12500
C1789       C  0.93913383  0.08493526  0.18607791    -0.17100
C1790       C  0.91149897  0.04870862  0.19655269    -0.32300
H1791       H  0.95547488  0.08747337  0.16558672     0.11900
H1792       H  0.89514774  0.04619707  0.21703333     0.12500
C1793       C  0.58115334  0.15564558  0.36632418    -0.17100
C1794       C  0.60837960  0.14650447  0.35583177    -0.32300
H1795       H  0.56512194  0.14235229  0.38701871     0.11900
H1796       H  0.62443396  0.15984874  0.33515313     0.12500
C1797       C  0.74644650  0.98828408  0.03256289    -0.17100
C1798       C  0.77454420  0.48025038  0.02238019    -0.32300
H1799       H  0.72991801  0.97429574  0.05295220     0.11900
H1800       H  0.79108063  0.49430147  0.00200487     0.12500
C1801       C  0.74427929  0.21431709  0.53006709    -0.17100
C1802       C  0.77164476  0.25068131  0.51964732    -0.32300
H1803       H  0.72814318  0.21161626  0.55070034     0.11900
H1804       H  0.78776899  0.25341129  0.49900331     0.12500
C1805       C  0.91361088  0.32231998  0.70004913    -0.17100
C1806       C  0.94182720  0.31434993  0.68995245    -0.32300
H1807       H  0.89702507  0.30833309  0.72042032     0.11900
H1808       H  0.95842684  0.32838292  0.66959552     0.12500
C1809       C  0.57791345  0.38247123  0.86307851    -0.17100
C1810       C  0.60615855  0.41866161  0.85298718    -0.32300
H1811       H  0.56117170  0.37997735  0.88334091     0.11900
H1812       H  0.62291053  0.42121024  0.83272018     0.12500
C1813       C  0.67324638  0.08055806  0.19669055    -0.17100
C1814       C  0.68177402  0.05280380  0.18639262    -0.32300
H1815       H  0.68707250  0.09696790  0.21715554     0.11900
H1816       H  0.66798863  0.03638480  0.16592247     0.12500
C1817       C  0.61126090  0.41303971  0.36534444    -0.17100
C1818       C  0.57492803  0.38534551  0.35508242    -0.32300
H1819       H  0.61396766  0.42937725  0.38587156     0.11900
H1820       H  0.57226586  0.36901077  0.33456186     0.12500
C1821       C  0.77905221  0.24443993  0.03414389    -0.17100
C1822       C  0.74291360  0.21642026  0.02378303    -0.37700
H1823       H  0.78149707  0.26097667  0.05450956     0.11900
H1824       H  0.74049923  0.19989029  0.00341894     0.12500
C1825       C  0.00982899  0.24952482  0.52870634    -0.17100
C1826       C  0.51821646  0.22155032  0.51856904    -0.32300
H1827       H  0.02355678  0.26588901  0.54920884     0.11900
H1828       H  0.50454987  0.20522161  0.49804516     0.12500
C1829       C  0.83976033  0.41494760  0.86367678    -0.17100
C1830       C  0.84835617  0.38729478  0.85326196    -0.32300
H1831       H  0.85359012  0.43132799  0.88415185     0.11900
H1832       H  0.83455997  0.37091171  0.83278183     0.12500
C1833       C  0.90823472  0.05182267  0.68913352    -0.17100
C1834       C  0.94457159  0.07922412  0.69957355    -0.32300
H1835       H  0.90560419  0.03553712  0.66859328     0.11900
H1836       H  0.94725140  0.09549538  0.72013164     0.12500
C1837       C  0.80110232  0.99830934  0.71085972     0.79500
N1838       N  0.83589299  0.50997654  0.69570538    -0.78800
C1839       C  0.87098588  0.54182099  0.70502317     0.82000
N1840       N  0.87156651  0.56260171  0.72971538    -0.78700
C1841       C  0.83716565  0.55181901  0.74499879     0.82100
N1842       N  0.80183227  0.51923284  0.73574624    -0.80400
C1843       C  0.55166128  0.63189583  0.67714618     0.79500
N1844       N  0.55016416  0.61121057  0.65190693    -0.78800
C1845       C  0.51451600  0.57888274  0.64280334     0.82000
N1846       N  0.98043715  0.56832810  0.65845206    -0.78700
C1847       C  0.98168132  0.58894962  0.68343848     0.82100
N1848       N  0.51721044  0.62031262  0.69276801    -0.80400
C1849       C  0.78623481  0.96852481  0.84184938     0.79500
N1850       N  0.76620110  0.94769838  0.81688588    -0.78800
C1851       C  0.76901766  0.91515279  0.80768240     0.82000
N1852       N  0.79248521  0.90430833  0.82306276    -0.78700
C1853       C  0.81254227  0.92501845  0.84779530     0.82100
N1854       N  0.80927890  0.95685563  0.85708192    -0.80400
C1855       C  0.90221134  0.83423450  0.87591348     0.79500
N1856       N  0.87918827  0.84567412  0.86033361    -0.78800
C1857       C  0.87545418  0.87734648  0.86944353     0.82000
N1858       N  0.89496280  0.89807007  0.89433794    -0.78700
C1859       C  0.91829374  0.88740342  0.91003487     0.82100
N1860       N  0.92156699  0.85505822  0.90101726    -0.80400
C1861       C  0.95437873  0.80142502  0.50788092     0.79500
N1862       N  0.93397859  0.78028299  0.48313829    -0.78800
C1863       C  0.93740335  0.74820362  0.47363581     0.82000
N1864       N  0.96190800  0.73819014  0.48846743    -0.78700
C1865       C  0.98239195  0.75929090  0.51296001     0.82100
N1866       N  0.97845763  0.79060360  0.52257369    -0.80400
C1867       C  0.56961579  0.66658528  0.54242933     0.79500
N1868       N  0.54785017  0.67897582  0.52624135    -0.78800
C1869       C  0.54465221  0.71104314  0.53510313     0.82000
N1870       N  0.56334125  0.73114863  0.56041295    -0.78700
C1871       C  0.58539336  0.71953581  0.57677922     0.82100
N1872       N  0.58823348  0.68685491  0.56794073    -0.80400
C1873       C  0.88561528  0.79920481  0.01060223     0.79500
N1874       N  0.85137341  0.78704807  0.02666044    -0.78800
C1875       C  0.81610665  0.75495906  0.01778058     0.82000
N1876       N  0.81480268  0.73467181  0.99262522    -0.78700
C1877       C  0.84853788  0.74610259  0.97643092     0.82100
N1878       N  0.88403524  0.77875430  0.98525104    -0.80400
C1879       C  0.63537430  0.66452827  0.04420620     0.79500
N1880       N  0.63602304  0.68557851  0.06895184    -0.78800
C1881       C  0.67147216  0.71764496  0.07849140     0.82000
N1882       N  0.70601976  0.72778477  0.06371074    -0.78700
C1883       C  0.70552071  0.70680036  0.03921309     0.82100
N1884       N  0.67032693  0.67543817  0.02954079    -0.80400
C1885       C  0.96807547  0.83096772  0.37757752     0.79500
N1886       N  0.96890027  0.85158607  0.40264240    -0.78800
C1887       C  0.00417677  0.88423789  0.41178065     0.82000
N1888       N  0.53850235  0.89531264  0.39623489    -0.78700
C1889       C  0.53781522  0.87480135  0.37135812     0.82100
N1890       N  0.00269431  0.84298675  0.36211515    -0.80400
C1891       C  0.71837372  0.96541694  0.34298889     0.79500
N1892       N  0.68387809  0.95415119  0.35847450    -0.78800
C1893       C  0.64839363  0.92264546  0.34928779     0.82000
N1894       N  0.64714066  0.90186899  0.32440168    -0.78700
C1895       C  0.68117695  0.91234608  0.30878506     0.82100
N1896       N  0.71686726  0.94456272  0.31788433    -0.80400
C1897       C  0.62005860  0.63442276  0.17471966     0.79500
N1898       N  0.60008140  0.61370473  0.14975525    -0.78800
C1899       C  0.60291031  0.58122926  0.14049251     0.82000
N1900       N  0.62634940  0.57027788  0.15582611    -0.78700
C1901       C  0.64636335  0.59089627  0.18061021     0.82100
N1902       N  0.64307953  0.62270923  0.18994360    -0.80400
C1903       C  0.73589611  0.49997589  0.20905686     0.79500
N1904       N  0.75514679  0.52075694  0.23421680    -0.78800
C1905       C  0.75182297  0.55308539  0.24324399     0.82000
N1906       N  0.72853968  0.56376718  0.22747983    -0.78700
C1907       C  0.70913399  0.54308485  0.20253060     0.82100
N1908       N  0.71292848  0.51144198  0.19343184    -0.80400
C1909       C  0.52445440  0.77528302  0.84161931     0.79500
N1910       N  0.54531470  0.77590575  0.81675465    -0.78800
C1911       C  0.57777632  0.81121427  0.80742713     0.82000
N1912       N  0.58854380  0.84567480  0.82259052    -0.78700
C1913       C  0.56778053  0.84517795  0.84724405     0.82100
N1914       N  0.53599416  0.81011475  0.85664393    -0.80400
C1915       C  0.65929550  0.52553454  0.87587289     0.79500
N1916       N  0.64786701  0.99113653  0.86023415    -0.78800
C1917       C  0.61615885  0.95569674  0.86925620     0.82000
N1918       N  0.59545197  0.95437177  0.89418580    -0.78700
C1919       C  0.60612064  0.48830232  0.90994256     0.82100
N1920       N  0.63847852  0.52395636  0.90100380    -0.80400
C1921       C  0.86014202  0.87567742  0.67712080     0.79500
N1922       N  0.88063037  0.89456021  0.65176801    -0.78800
C1923       C  0.91291911  0.89119267  0.64271707     0.82000
N1924       N  0.92388615  0.86831102  0.65866791    -0.78700
C1925       C  0.90354265  0.84932942  0.68381458     0.82100
N1926       N  0.87188589  0.85307968  0.69292877    -0.80400
C1927       C  0.99496725  0.76043369  0.71161827     0.79500
N1928       N  0.98366717  0.78390270  0.69657532    -0.78800
C1929       C  0.95209418  0.78752005  0.70601135     0.82000
N1930       N  0.93130068  0.76742933  0.73069390    -0.78700
C1931       C  0.94181794  0.74358752  0.74587532     0.82100
N1932       N  0.97407669  0.74038095  0.73653319    -0.80400
C1933       C  0.69112517  0.60716751  0.50833705     0.79500
N1934       N  0.70261433  0.64191199  0.52347622    -0.78800
C1935       C  0.73429738  0.67708527  0.51412677     0.82000
N1936       N  0.75509244  0.67776039  0.48942425    -0.78700
C1937       C  0.74445931  0.64337966  0.47416081     0.82100
N1938       N  0.71202402  0.60797289  0.48342268    -0.80400
C1939       C  0.82540499  0.85746167  0.54277410     0.79500
N1940       N  0.80482733  0.85594550  0.56804711    -0.78800
C1941       C  0.77238845  0.82036717  0.57705828     0.82000
N1942       N  0.76136866  0.78642578  0.56114428    -0.78700
C1943       C  0.78183731  0.78768765  0.53606695     0.82100
N1944       N  0.81360266  0.82307256  0.52700029    -0.80400
C1945       C  0.69364256  0.54257443  0.01006726     0.79500
N1946       N  0.71448966  0.56195021  0.98498362    -0.78800
C1947       C  0.74683998  0.55868388  0.97598747     0.82000
N1948       N  0.75749847  0.53534879  0.99168908    -0.78700
C1949       C  0.73675704  0.51581390  0.01657019     0.82100
N1950       N  0.70506026  0.51952981  0.02565358    -0.80400
C1951       C  0.82805304  0.92649187  0.04388751     0.79500
N1952       N  0.80726880  0.90633097  0.06879405    -0.78800
C1953       C  0.77472291  0.90903955  0.07807352     0.82000
N1954       N  0.76378362  0.93253990  0.06280993    -0.78700
C1955       C  0.78445306  0.95272630  0.03809406     0.82100
N1956       N  0.81633412  0.94956937  0.02874748    -0.80400
C1957       C  0.66146959  0.59252068  0.37766279     0.79500
N1958       N  0.65006374  0.61587843  0.36257675    -0.78800
C1959       C  0.61841920  0.61941999  0.37194639     0.82000
N1960       N  0.59755304  0.59923213  0.39661170    -0.78700
C1961       C  0.60809261  0.57537964  0.41183092     0.82100
N1962       N  0.64050877  0.57237055  0.40255030    -0.80400
C1963       C  0.52732340  0.70861324  0.34325526     0.79500
N1964       N  0.53930076  0.68625194  0.35912933    -0.78800
C1965       C  0.57106693  0.68264895  0.35006235     0.82000
N1966       N  0.59137095  0.70164997  0.32488088    -0.78700
C1967       C  0.58020446  0.72436802  0.30885776     0.82100
N1968       N  0.54775428  0.72749735  0.31787428    -0.80400
C1969       C  0.99249347  0.69188432  0.20862952     0.79500
N1970       N  0.97190323  0.69045397  0.23389989    -0.78800
C1971       C  0.93953190  0.65485761  0.24299774     0.82000
N1972       N  0.92862283  0.62089764  0.22718807    -0.78700
C1973       C  0.94907448  0.62208513  0.20214479     0.82100
N1974       N  0.98076932  0.65743414  0.19297552    -0.80400
C1975       C  0.85845554  0.94148513  0.17504989     0.79500
N1976       N  0.86986774  0.97625307  0.19014802    -0.78800
C1977       C  0.90159614  0.51145963  0.18074651     0.82000
N1978       N  0.92240553  0.51213935  0.15606870    -0.78700
C1979       C  0.91176372  0.97773289  0.14086998     0.82100
N1980       N  0.87938391  0.94231277  0.15015538    -0.80400
C1981       C  0.78285143  0.77330605  0.34390811     0.79500
N1982       N  0.80484755  0.80758271  0.35994327    -0.78800
C1983       C  0.80806703  0.84284740  0.35099983     0.82000
N1984       N  0.78911151  0.84411621  0.32579214    -0.78700
C1985       C  0.76680638  0.81033777  0.30959209     0.82100
N1986       N  0.76399747  0.77484567  0.31848918    -0.80400
C1987       C  0.89923447  0.52363242  0.37744864     0.79500
N1988       N  0.87555871  0.98878346  0.36256355    -0.78800
C1989       C  0.87165565  0.95355238  0.37222966     0.82000
N1990       N  0.89185266  0.95295928  0.39690792    -0.78700
C1991       C  0.91599515  0.48741881  0.41188809     0.82100
N1992       N  0.91939036  0.52288484  0.40233610    -0.80400
C1993       C  0.73327790  0.69139445  0.71089285     0.79500
N1994       N  0.75301705  0.69059923  0.73597975    -0.78800
C1995       C  0.75046575  0.65537120  0.74510730     0.82000
N1996       N  0.72756447  0.62109901  0.72948839    -0.78700
C1997       C  0.70780389  0.62174053  0.70456298     0.82100
N1998       N  0.71078051  0.65677368  0.69538472    -0.80400
C1999       C  0.61762221  0.94101555  0.67662471     0.79500
N2000       N  0.59821147  0.94241565  0.65153744    -0.78800
C2001       C  0.60178552  0.97808294  0.64231850     0.82000
N2002       N  0.62549761  0.51221430  0.65781955    -0.78700
C2003       C  0.64511852  0.51107326  0.68268091     0.82100
N2004       N  0.64104249  0.97559486  0.69197677    -0.80400
C2005       C  0.88423133  0.53904069  0.50869223     0.79500
N2006       N  0.84950662  0.51623143  0.52399189    -0.78800
C2007       C  0.81443724  0.51301311  0.51462583     0.82000
N2008       N  0.81385519  0.53288534  0.48974690    -0.78700
C2009       C  0.84822051  0.55614472  0.47433320     0.82100
N2010       N  0.88349645  0.55890271  0.48363185    -0.80400
C2011       C  0.63382021  0.92261937  0.54238804     0.79500
N2012       N  0.66828485  0.94568665  0.52681699    -0.78800
C2013       C  0.70373939  0.94956855  0.53597859     0.82000
N2014       N  0.70498506  0.93012228  0.56090382    -0.78700
C2015       C  0.67099249  0.90671953  0.57659182     0.82100
N2016       N  0.63533050  0.90332969  0.56752948    -0.80400
C2017       C  0.80135045  0.75691329  0.20917951     0.79500
N2018       N  0.83588243  0.78005517  0.19373096    -0.78800
C2019       C  0.87133418  0.78412118  0.20306406     0.82000
N2020       N  0.87252836  0.76477484  0.22807759    -0.78700
C2021       C  0.83844459  0.74127887  0.24367678     0.82100
N2022       N  0.80277308  0.73771726  0.23441583    -0.80400
C2023       C  0.55155448  0.87287118  0.17472549     0.79500
N2024       N  0.55072277  0.89301333  0.14984138    -0.78800
C2025       C  0.51540252  0.89044914  0.14080615     0.82000
N2026       N  0.98120062  0.86724252  0.15639439    -0.78700
C2027       C  0.98190120  0.84711077  0.18109242     0.82100
N2028       N  0.51690844  0.84997421  0.19006950    -0.80400
C2029       C  0.95038134  0.60810322  0.01021744     0.79500
N2030       N  0.93094390  0.60957600  0.98513942    -0.78800
C2031       C  0.93423272  0.64522276  0.97612536     0.82000
N2032       N  0.95765574  0.67920948  0.99179748    -0.78700
C2033       C  0.97722792  0.67798352  0.01664913     0.82100
N2034       N  0.97347367  0.64257330  0.02576043    -0.80400
C2035       C  0.56661844  0.85824835  0.04399384     0.79500
N2036       N  0.58686184  0.85750877  0.06885220    -0.78800
C2037       C  0.58414359  0.82216810  0.07801183     0.82000
N2038       N  0.56055829  0.78782663  0.06270473    -0.78700
C2039       C  0.54029783  0.78843345  0.03808314     0.82100
N2040       N  0.54346541  0.82350505  0.02883299    -0.80400
C2041       C  0.71770052  0.70648669  0.84217080     0.79500
N2042       N  0.68272869  0.68255019  0.85684814    -0.78800
C2043       C  0.64756923  0.67878803  0.84716035     0.82000
N2044       N  0.64712786  0.69923718  0.82261209    -0.78700
C2045       C  0.68170958  0.72357017  0.80781594     0.82100
N2046       N  0.71711323  0.72687381  0.81738718    -0.80400
C2047       C  0.96724901  0.59020604  0.87547542     0.79500
N2048       N  0.96884716  0.57120553  0.90076672    -0.78800
C2049       C  0.00439337  0.57411911  0.90959016     0.82000
N2050       N  0.53818429  0.59677370  0.89354407    -0.78700
C2051       C  0.53689109  0.61590618  0.86845941     0.82100
N2052       N  0.00151981  0.61247988  0.85949155    -0.80400
O2053       O  0.87336764  0.60040521  0.78314655    -0.80800
O2054       O  0.71502860  0.59036789  0.88785078    -0.82400
O2055       O  0.77616371  0.52382780  0.83127491    -0.79400
O2056       O  0.76248953  0.61930957  0.78334742    -0.77800
O2057       O  0.79890856  0.68833402  0.78218305    -0.79600
O2058       O  0.81080639  0.52506161  0.87337562    -0.80500
O2059       O  0.71615670  0.55843107  0.84485097    -0.81800
O2060       O  0.80436618  0.56787871  0.78198494    -0.82100
Eu2061     Eu  0.78526861  0.59206209  0.82520463     2.39200
O2062       O  0.78485233  0.64929160  0.84277133    -0.89600
O2063       O  0.84387645  0.59301642  0.84260541    -0.93200
C2064       C  0.83852677  0.57484465  0.77175354     1.01500
C2065       C  0.69858987  0.56124897  0.86863424     1.01300
C2066       C  0.78998396  0.50767968  0.84969541     1.01200
C2067       C  0.77181801  0.65411336  0.77195384     0.99100
H2068       H  0.76473495  0.56627979  0.88550251     0.28800
O2069       O  0.78642579  0.59130495  0.87789478    -1.02000
H2070       H  0.84291570  0.65040185  0.78617202     0.28900
O2071       O  0.84289836  0.65035572  0.80775510    -1.04600
O2072       O  0.81160227  0.69785765  0.93808948    -0.81800
O2073       O  0.96926029  0.70978925  0.83113335    -0.81300
O2074       O  0.79534680  0.57052870  0.93775601    -0.79800
O2075       O  0.78325221  0.71712451  0.83167208    -0.83100
O2076       O  0.89307784  0.73112021  0.78377456    -0.81000
O2077       O  0.90270042  0.58173854  0.88760971    -0.79600
O2078       O  0.92256493  0.68204601  0.93782674    -0.81100
O2079       O  0.91137128  0.77847418  0.88774262    -0.83100
O2080       O  0.88709310  0.61294707  0.93846864    -0.79800
O2081       O  0.87784145  0.77721720  0.84497205    -0.82500
O2082       O  0.76169806  0.60597276  0.93848729    -0.78200
O2083       O  0.93469872  0.61498065  0.84469320    -0.78200
O2084       O  0.92528926  0.69432118  0.78234758    -0.77900
O2085       O  0.74994115  0.68238138  0.87378317    -0.81400
O2086       O  0.88071395  0.73189463  0.93839814    -0.80800
O2087       O  0.96809979  0.74334800  0.87317215    -0.79100
Eu2088     Eu  0.78420934  0.64855257  0.89525759     2.39800
Eu2089     Eu  0.90103342  0.65060485  0.82513733     2.39600
Eu2090     Eu  0.84479365  0.59309255  0.89507637     2.38400
Eu2091     Eu  0.84235992  0.70804365  0.82530920     2.39900
Eu2092     Eu  0.90025883  0.70920955  0.89506538     2.39800
O2093       O  0.89989197  0.70818241  0.84262832    -0.93500
O2094       O  0.84315597  0.65030321  0.91198826    -0.92400
C2095       C  0.84655654  0.72375546  0.94924615     1.01600
C2096       C  0.98539499  0.73984967  0.84947757     1.00300
C2097       C  0.76955158  0.57960156  0.94905286     0.99700
C2098       C  0.75329187  0.70316130  0.85010918     1.01800
C2099       C  0.91858652  0.72178561  0.77238662     1.00700
C2100       C  0.93178333  0.59435912  0.86837994     0.99500
C2101       C  0.91342127  0.64713109  0.94911852     0.99600
C2102       C  0.89850093  0.79487493  0.86864509     1.02200
H2103       H  0.92709609  0.65584616  0.88539038     0.29600
O2104       O  0.90208976  0.65261852  0.87782762    -1.05700
H2105       H  0.83738297  0.72870929  0.88567089     0.31600
O2106       O  0.84066379  0.70701018  0.87800229    -1.08300
O2107       O  0.93012982  0.93589262  0.94829533    -0.80800
O2108       O  0.57673833  0.92365588  0.05462125    -0.82400
O2109       O  0.55755522  0.95144115  0.94817869    -0.79400
O2110       O  0.95007255  0.85528216  0.99842098    -0.77800
O2111       O  0.91808725  0.85647426  0.04136982    -0.79600
O2112       O  0.59121741  0.52057679  0.94751186    -0.80500
O2113       O  0.54187160  0.89023357  0.01259946    -0.81800
O2114       O  0.96548841  0.90215326  0.94759284    -0.82100
Eu2115     Eu  0.50802402  0.92445789  0.99084446     2.39200
O2116       O  0.00880966  0.92515157  0.04332791    -0.89600
O2117       O  0.50967569  0.98335222  0.97398636    -0.93200
C2118       C  0.93917737  0.91007727  0.93699964     1.01500
C2119       C  0.56280753  0.89366750  0.03622027     1.01300
C2120       C  0.58339723  0.98635403  0.93694912     1.01200
C2121       C  0.92101809  0.83881305  0.01767516     0.99100
H2122       H  0.58812963  0.97765931  0.00036804     0.28800
O2123       O  0.56643546  0.98097042  0.00799998    -1.02000
H2124       H  0.92584098  0.90508074  0.00062744     0.28900
O2125       O  0.95085539  0.92684368  0.00819434    -1.04600
O2126       O  0.59057170  0.53292629  0.10235863    -0.81800
O2127       O  0.94140607  0.54328401  0.99830753    -0.81300
O2128       O  0.63787657  0.55167358  0.99814624    -0.79800
O2129       O  0.97918323  0.90293597  0.10280328    -0.83100
O2130       O  0.88343463  0.91657110  0.05456698    -0.81000
O2131       O  0.54133130  0.56270075  0.94795390    -0.79600
O2132       O  0.56967765  0.60976302  0.05461614    -0.81100
O2133       O  0.96021809  0.51408773  0.10269530    -0.83100
O2134       O  0.60297406  0.60839790  0.01247550    -0.79800
O2135       O  0.92783114  0.94502431  0.10401629    -0.82500
O2136       O  0.63664812  0.51827373  0.04098388    -0.78200
O2137       O  0.97226067  0.52752536  0.94757081    -0.78200
O2138       O  0.88466265  0.95130009  0.01251619    -0.77900
O2139       O  0.54814711  0.93928621  0.10384753    -0.81400
O2140       O  0.55405852  0.56543281  0.10372782    -0.80800
O2141       O  0.97487557  0.57543837  0.04112051    -0.79100
Eu2142     Eu  0.56748779  0.98268536  0.06068520     2.39800
Eu2143     Eu  0.95266768  0.98527926  0.99100587     2.39600
Eu2144     Eu  0.56861705  0.54050984  0.99073995     2.38400
Eu2145     Eu  0.95169644  0.92570735  0.06087571     2.39900
Eu2146     Eu  0.51035540  0.54166723  0.06078004     2.39800
O2147       O  0.95270884  0.98442359  0.04348704    -0.93500
O2148       O  0.56774922  0.54028500  0.04320662    -0.92400
C2149       C  0.58128927  0.55841185  0.11379774     1.01600
C2150       C  0.95420412  0.57248423  0.01744856     1.00300
C2151       C  0.65428781  0.53887487  0.01729443     0.99700
C2152       C  0.01403491  0.91216311  0.11413215     1.01800
C2153       C  0.86727556  0.93038282  0.03613531     1.00700
C2154       C  0.50638300  0.55366080  0.93677573     0.99500
C2155       C  0.59967823  0.62574166  0.03621034     0.99600
C2156       C  0.93474311  0.97918482  0.11416316     1.02200
H2157       H  0.51547152  0.56760926  0.00047097     0.29600
O2158       O  0.51221975  0.54261176  0.00807897    -1.05700
H2159       H  0.50996431  0.98340592  0.09976565     0.31600
O2160       O  0.50990889  0.98341593  0.07818392    -1.08300
O2161       O  0.92452636  0.69922908  0.43578469    -0.80800
O2162       O  0.77451075  0.70875248  0.33194753    -0.82400
O2163       O  0.90278875  0.77552891  0.38830645    -0.79400
O2164       O  0.79320959  0.67966890  0.43623055    -0.77800
O2165       O  0.76072562  0.61064845  0.43729149    -0.79600
O2166       O  0.93620458  0.77435163  0.34618789    -0.80500
O2167       O  0.80799637  0.74098491  0.37474323    -0.81800
O2168       O  0.88767670  0.73137960  0.43733742    -0.82100
Eu2169     Eu  0.84364573  0.70725937  0.39449733     2.39200
O2170       O  0.78612345  0.64999014  0.37691087    -0.89600
O2171       O  0.90114145  0.70605150  0.37690135    -0.93200
C2172       C  0.91525893  0.72475700  0.44722412     1.01500
C2173       C  0.78720666  0.73793483  0.35109567     1.01300
C2174       C  0.93273686  0.79170608  0.36985592     1.01200
C2175       C  0.76760166  0.64479334  0.44751108     0.99100
H2176       H  0.84871984  0.73316627  0.33428491     0.28800
O2177       O  0.84551568  0.70815760  0.34181307    -1.02000
H2178       H  0.84329785  0.64891565  0.43336576     0.28900
O2179       O  0.84327678  0.64895132  0.41178158    -1.04600
O2180       O  0.76357693  0.60155703  0.28159620    -0.81800
O2181       O  0.91001593  0.58928949  0.38791741    -0.81300
O2182       O  0.87507679  0.72921841  0.28188890    -0.79800
O2183       O  0.71668579  0.58216639  0.38816793    -0.83100
O2184       O  0.81215855  0.56825354  0.43606686    -0.81000
O2185       O  0.97140289  0.71764294  0.33163037    -0.79600
O2186       O  0.89117967  0.61796735  0.28137273    -0.81100
O2187       O  0.78337684  0.52119137  0.33128166    -0.83100
O2188       O  0.92490454  0.68706444  0.28093247    -0.79800
O2189       O  0.75128924  0.52216200  0.37424907    -0.82500
O2190       O  0.80598471  0.69397738  0.28131627    -0.78200
O2191       O  0.97028410  0.68405061  0.37432910    -0.78200
O2192       O  0.88118079  0.60483014  0.43732709    -0.77900
O2193       O  0.71798746  0.61694957  0.34612936    -0.81400
O2194       O  0.79907464  0.56796188  0.28083157    -0.80800
O2195       O  0.87526308  0.55602419  0.34579198    -0.79100
Eu2196     Eu  0.78602465  0.65095737  0.32441003     2.39800
Eu2197     Eu  0.90107483  0.64851194  0.39422701     2.39600
Eu2198     Eu  0.90211062  0.70644822  0.32441618     2.38400
Eu2199     Eu  0.78496692  0.59124214  0.39423452     2.39900
Eu2200     Eu  0.84161630  0.59044306  0.32412273     2.39800
O2201       O  0.84231630  0.59108345  0.37663042    -0.93500
O2202       O  0.84322886  0.64936061  0.30736399    -0.92400
C2203       C  0.77268501  0.57578965  0.27025511     1.01600
C2204       C  0.89599976  0.55930814  0.36949016     1.00300
C2205       C  0.84019953  0.72031279  0.27067631     0.99700
C2206       C  0.70058056  0.59609526  0.36979225     1.01800
C2207       C  0.84696666  0.57761386  0.44750045     1.00700
C2208       C  0.98790341  0.70479713  0.35065403     0.99500
C2209       C  0.91699787  0.65292513  0.27015014     0.99600
C2210       C  0.75414828  0.50468457  0.35040742     1.02200
H2211       H  0.92169551  0.64364778  0.33381689     0.29600
O2212       O  0.89998946  0.64689775  0.34150497    -1.05700
H2213       H  0.75931546  0.57093265  0.33386793     0.31600
O2214       O  0.78432130  0.59259062  0.34153038    -1.08300
O2215       O  0.73570649  0.94288589  0.72146276    -0.80800
O2216       O  0.72385616  0.78379184  0.61539311    -0.82400
O2217       O  0.80428460  0.88453146  0.66524127    -0.79400
O2218       O  0.70782892  0.89523701  0.61495360    -0.77800
O2219       O  0.63872304  0.85976714  0.61437880    -0.79600
O2220       O  0.80323417  0.85151135  0.70825111    -0.80500
O2221       O  0.75773316  0.85288591  0.61471688    -0.81800
O2222       O  0.76919709  0.94146479  0.67947139    -0.82100
Eu2223     Eu  0.73507678  0.87324539  0.65782857     2.39200
O2224       O  0.67618115  0.81590292  0.64105733    -0.89600
O2225       O  0.73433071  0.87343994  0.71031809    -0.93200
C2226       C  0.76570867  0.95899273  0.70306683     1.01500
C2227       C  0.74977191  0.81863173  0.60410564     1.01300
C2228       C  0.82078284  0.87192903  0.68444899     1.01200
C2229       C  0.67290056  0.88603992  0.60367012     0.99100
H2230       H  0.75453886  0.81051832  0.66776453     0.28800
O2231       O  0.73279751  0.81380112  0.67532689    -1.02000
H2232       H  0.68180113  0.89996861  0.66728626     0.28900
O2233       O  0.67848081  0.87499478  0.67499486    -1.04600
O2234       O  0.61662315  0.68773109  0.66550261    -0.81800
O2235       O  0.62628014  0.84717877  0.76935972    -0.81300
O2236       O  0.74291589  0.75659318  0.72172064    -0.79800
O2237       O  0.59671765  0.76789508  0.61515064    -0.83100
O2238       O  0.60810005  0.87591353  0.66502700    -0.81000
O2239       O  0.75673206  0.86649244  0.76970823    -0.79600
O2240       O  0.64565074  0.73584356  0.76972086    -0.81100
O2241       O  0.54983628  0.74956102  0.72202897    -0.83100
O2242       O  0.71466022  0.77268465  0.77116696    -0.79800
O2243       O  0.55113658  0.78417006  0.67987786    -0.82500
O2244       O  0.70849765  0.72317644  0.67954585    -0.78200
O2245       O  0.72016675  0.89893807  0.77076031    -0.78200
O2246       O  0.64127504  0.90811611  0.70792836    -0.77900
O2247       O  0.63188695  0.73397078  0.61489881    -0.81400
O2248       O  0.58422348  0.68906901  0.70816394    -0.80800
O2249       O  0.59397169  0.77816846  0.77087291    -0.79100
Eu2250     Eu  0.67443995  0.75708987  0.65814012     2.39800
Eu2251     Eu  0.67672316  0.87451990  0.72769287     2.39600
Eu2252     Eu  0.73402814  0.81593665  0.72800076     2.38400
Eu2253     Eu  0.61894849  0.81757496  0.65783811     2.39900
Eu2254     Eu  0.61797125  0.75839420  0.72794783     2.39800
O2255       O  0.61921909  0.81707350  0.71030645    -0.93500
O2256       O  0.67535000  0.75818307  0.71064174    -0.92400
C2257       C  0.58728950  0.67133325  0.68452779     1.01600
C2258       C  0.60080786  0.81240535  0.78083678     1.00300
C2259       C  0.72927574  0.72667901  0.70322568     0.99700
C2260       C  0.60576374  0.74195999  0.60402719     1.01800
C2261       C  0.62090247  0.90519598  0.68411475     1.00700
C2262       C  0.74741798  0.89207429  0.78099258     0.99500
C2263       C  0.68046505  0.74530702  0.78120067     0.99600
C2264       C  0.53382040  0.76356750  0.70364859     1.02200
H2265       H  0.67618483  0.81644524  0.76692213     0.29600
O2266       O  0.67618841  0.81633581  0.74533927    -1.05700
H2267       H  0.59207194  0.73745207  0.66766289     0.31600
O2268       O  0.61705651  0.75922042  0.67526239    -1.08300
O2269       O  0.70755052  0.76620252  0.11646534    -0.80800
O2270       O  0.54839597  0.75653255  0.22043949    -0.82400
O2271       O  0.60998306  0.68971966  0.16405153    -0.79400
O2272       O  0.59644056  0.78582528  0.11601978    -0.77800
O2273       O  0.63305583  0.85484444  0.11487475    -0.79600
O2274       O  0.64450643  0.69084823  0.20620405    -0.80500
O2275       O  0.54962732  0.72430261  0.17764016    -0.81800
O2276       O  0.63853506  0.73402809  0.11491050    -0.82100
Eu2277     Eu  0.61892841  0.75794951  0.15786782     2.39200
O2278       O  0.61860835  0.81518584  0.17534825    -0.89600
O2279       O  0.67766369  0.75909043  0.17537530    -0.93200
C2280       C  0.67274783  0.74078931  0.10498738     1.01500
C2281       C  0.53195004  0.72732406  0.20132598     1.01300
C2282       C  0.62376435  0.67354643  0.18250448     1.01200
C2283       C  0.60579793  0.82071013  0.10467511     0.99100
H2284       H  0.59815726  0.73198985  0.21808918     0.28800
O2285       O  0.61994578  0.75699243  0.21053461    -1.02000
H2286       H  0.67691168  0.81625496  0.11902496     0.28900
O2287       O  0.67685887  0.81621308  0.14060749    -1.04600
O2288       O  0.64451605  0.86372994  0.27053647    -0.81800
O2289       O  0.80331051  0.87599715  0.16434416    -0.81300
O2290       O  0.62869701  0.73611991  0.27052454    -0.79800
O2291       O  0.61698795  0.88290606  0.16405756    -0.83100
O2292       O  0.72645298  0.89674937  0.11625154    -0.81000
O2293       O  0.73628860  0.74749345  0.22064254    -0.79600
O2294       O  0.75558235  0.84728606  0.27106904    -0.81100
O2295       O  0.74492407  0.94407674  0.22084744    -0.83100
O2296       O  0.72044740  0.77818414  0.27136660    -0.79800
O2297       O  0.71178613  0.94303917  0.17790717    -0.82500
O2298       O  0.59480268  0.77131511  0.27099401    -0.78200
O2299       O  0.76874352  0.78113335  0.17795168    -0.78200
O2300       O  0.75892389  0.86020325  0.11494945    -0.77900
O2301       O  0.58351857  0.84809830  0.20607997    -0.81400
O2302       O  0.71361053  0.89735089  0.27131534    -0.80800
O2303       O  0.80191210  0.90915783  0.20654955    -0.79100
Eu2304     Eu  0.61768020  0.81424309  0.22783506     2.39800
Eu2305     Eu  0.73511771  0.81670122  0.15809463     2.39600
Eu2306     Eu  0.67829455  0.75875215  0.22786878     2.38400
Eu2307     Eu  0.67627307  0.87392011  0.15805878     2.39900
Eu2308     Eu  0.73379116  0.87480269  0.22812483     2.39800
O2309       O  0.73382568  0.87415475  0.17561759    -0.93500
O2310       O  0.67650403  0.81585263  0.24480397    -0.92400
C2311       C  0.67938000  0.88954520  0.28185424     1.01600
C2312       C  0.81935801  0.90590433  0.18284030     1.00300
C2313       C  0.60275704  0.74507698  0.28172548     0.99700
C2314       C  0.58697168  0.86900490  0.18244840     1.01800
C2315       C  0.75191393  0.88742105  0.10481159     1.00700
C2316       C  0.76565819  0.76044663  0.20164952     0.99500
C2317       C  0.74647958  0.81232257  0.28227412     0.99600
C2318       C  0.73222799  0.96057764  0.20169576     1.02200
H2319       H  0.76069216  0.82159888  0.21850293     0.29600
O2320       O  0.73573188  0.81833178  0.21080412    -1.05700
H2321       H  0.67101011  0.89434204  0.21836035     0.31600
O2322       O  0.67433049  0.87265203  0.21073537    -1.08300
O2323       O  0.97765118  0.53029230  0.60444274    -0.80800
O2324       O  0.63592199  0.54164368  0.49780250    -0.82400
O2325       O  0.58960196  0.51458499  0.60417652    -0.79400
O2326       O  0.57801036  0.61043160  0.55431543    -0.77800
O2327       O  0.54460260  0.60929022  0.51150201    -0.79600
O2328       O  0.55415366  0.94549550  0.60496201    -0.80500
O2329       O  0.63453740  0.57518507  0.53977472    -0.81800
O2330       O  0.54681118  0.56404949  0.60497823    -0.82100
Eu2331     Eu  0.56659975  0.54119182  0.56163349     2.39200
O2332       O  0.56644173  0.54024225  0.50913808    -0.89600
O2333       O  0.50951358  0.98236630  0.57873281    -0.93200
C2334       C  0.51263750  0.55617081  0.61570877     1.01500
C2335       C  0.65198985  0.57168473  0.51616448     1.01300
C2336       C  0.58064316  0.97975127  0.61544940     1.01200
C2337       C  0.56532866  0.62694120  0.53519047     0.99100
H2338       H  0.59339297  0.48783616  0.55199512     0.28800
O2339       O  0.56841966  0.98458735  0.54439767    -1.02000
H2340       H  0.50386167  0.56068854  0.55194262     0.28900
O2341       O  0.50709411  0.53893668  0.54433438    -1.04600
O2342       O  0.54035938  0.93240644  0.44996014    -0.81800
O2343       O  0.88127356  0.92242123  0.55445648    -0.81300
O2344       O  0.56906462  0.91372396  0.55437402    -0.79800
O2345       O  0.55933126  0.56289140  0.44982166    -0.83100
O2346       O  0.94952255  0.54892979  0.49797487    -0.81000
O2347       O  0.96138426  0.90272477  0.60444889    -0.79600
O2348       O  0.94313058  0.85605966  0.49766618    -0.81100
O2349       O  0.92843908  0.95137785  0.45000772    -0.83100
O2350       O  0.97778106  0.85741162  0.53981267    -0.79800
O2351       O  0.96515110  0.52033414  0.44856714    -0.82500
O2352       O  0.60108918  0.94694943  0.51143902    -0.78200
O2353       O  0.92768637  0.93812762  0.60494097    -0.78200
O2354       O  0.91620396  0.51439625  0.54014841    -0.77900
O2355       O  0.59175424  0.52630200  0.44865560    -0.81400
O2356       O  0.97128830  0.90013702  0.44870358    -0.80800
O2357       O  0.88236564  0.89011442  0.51165457    -0.79100
Eu2358     Eu  0.56758438  0.48267050  0.49172407     2.39800
Eu2359     Eu  0.95051256  0.98069579  0.56171174     2.39600
Eu2360     Eu  0.51117825  0.92514345  0.56182261     2.38400
Eu2361     Eu  0.50890391  0.54002114  0.49163116     2.39900
Eu2362     Eu  0.95152573  0.92404029  0.49175994     2.39800
O2363       O  0.95135355  0.98141445  0.50920304    -0.93500
O2364       O  0.51033473  0.92529063  0.50934091    -0.92400
C2365       C  0.50553827  0.90695699  0.43855815     1.01600
C2366       C  0.86479203  0.89310600  0.53539571     1.00300
C2367       C  0.59818049  0.92639047  0.53516206     0.99700
C2368       C  0.58490726  0.55360870  0.43848005     1.01800
C2369       C  0.91960553  0.53517515  0.51646074     1.00700
C2370       C  0.93552776  0.91181777  0.61564121     0.99500
C2371       C  0.95724732  0.84010777  0.51600890     0.99600
C2372       C  0.93779745  0.98617697  0.43852712     1.02200
H2373       H  0.93103611  0.89834501  0.55212426     0.29600
O2374       O  0.95271085  0.92335641  0.54448353    -1.05700
H2375       H  0.50933355  0.98213087  0.45262327     0.31600
O2376       O  0.50935674  0.98217858  0.47420722    -1.08300
C2377       C  0.61015544  0.65106021  0.86261906    -0.17100
C2378       C  0.57397713  0.64271164  0.85219049    -0.32300
H2379       H  0.61258124  0.63700001  0.88300966     0.11900
H2380       H  0.57150803  0.65674970  0.83180291     0.12500
C2381       C  0.00463653  0.71508908  0.03264351    -0.17100
C2382       C  0.51302117  0.75117368  0.02226665    -0.32300
H2383       H  0.51816695  0.71235901  0.05321625     0.11900
H2384       H  0.49914949  0.75371171  0.00181015     0.12500
C2385       C  0.90840963  0.81139558  0.18692022    -0.17100
C2386       C  0.94474007  0.82012457  0.19722068    -0.32300
H2387       H  0.90570657  0.82501748  0.16638667     0.11900
H2388       H  0.94741212  0.80641604  0.21771986     0.12500
C2389       C  0.77717312  0.98604217  0.53056309    -0.17100
C2390       C  0.74086547  0.97694693  0.51992786    -0.32300
H2391       H  0.77974292  0.97256708  0.55122004     0.11900
H2392       H  0.73824397  0.99039204  0.49927362     0.12500
C2393       C  0.68110593  0.58451415  0.68838486    -0.17100
C2394       C  0.67248997  0.54821961  0.69873498    -0.32300
H2395       H  0.66741401  0.58709223  0.66784570     0.11900
H2396       H  0.68613270  0.54559678  0.71928508     0.12500
C2397       C  0.84396098  0.91621350  0.35662359    -0.17100
C2398       C  0.83475157  0.87992186  0.36735299    -0.32300
H2399       H  0.83059112  0.91878191  0.33591014     0.11900
H2400       H  0.84811670  0.87732941  0.38805867     0.12500
C2401       C  0.93904295  0.58497155  0.18602793    -0.17100
C2402       C  0.91149959  0.54873134  0.19653287    -0.32300
H2403       H  0.95534228  0.58753290  0.16550943     0.11900
H2404       H  0.89518977  0.54619644  0.21704073     0.12500
C2405       C  0.58129050  0.65587028  0.36648901    -0.17100
C2406       C  0.60855807  0.64677119  0.35602122    -0.32300
H2407       H  0.56523660  0.64255648  0.38717222     0.11900
H2408       H  0.62463435  0.66013657  0.33535394     0.12500
C2409       C  0.74665334  0.48858638  0.03268047    -0.17100
C2410       C  0.77430077  0.97990443  0.02224754    -0.32300
H2411       H  0.73010826  0.47457792  0.05305992     0.11900
H2412       H  0.79082244  0.99393680  0.00186333     0.12500
C2413       C  0.74424976  0.71430188  0.53008873    -0.17100
C2414       C  0.77168680  0.75065695  0.51969799    -0.32300
H2415       H  0.72806649  0.71161243  0.55069487     0.11900
H2416       H  0.78785845  0.75337476  0.49908129     0.12500
C2417       C  0.91382105  0.82263049  0.70019213    -0.17100
C2418       C  0.94202419  0.81464303  0.69009096    -0.32300
H2419       H  0.89723600  0.80864518  0.72056386     0.11900
H2420       H  0.95861974  0.82867158  0.66973170     0.12500
C2421       C  0.57791210  0.88246619  0.86309250    -0.17100
C2422       C  0.60616371  0.91865979  0.85301367    -0.32300
H2423       H  0.56116822  0.87996315  0.88335575     0.11900
H2424       H  0.62291676  0.92121777  0.83274532     0.12500
C2425       C  0.67343163  0.58072493  0.19659525    -0.17100
C2426       C  0.68198470  0.55298680  0.18630903    -0.32300
H2427       H  0.68722814  0.59712775  0.21706870     0.11900
H2428       H  0.66822609  0.53657277  0.16583175     0.12500
C2429       C  0.61132771  0.91286547  0.36545492    -0.17100
C2430       C  0.57499488  0.88519257  0.35517541    -0.32300
H2431       H  0.61403314  0.92919044  0.38598841     0.11900
H2432       H  0.57233448  0.86887104  0.33464805     0.12500
C2433       C  0.77905087  0.74444636  0.03413694    -0.17100
C2434       C  0.74290609  0.71647913  0.02374980    -0.37700
H2435       H  0.78149963  0.76095266  0.05452024     0.11900
H2436       H  0.74048845  0.69998285  0.00336647     0.12500
C2437       C  0.01001552  0.74967008  0.52865526    -0.17100
C2438       C  0.51839493  0.72167999  0.51845697    -0.32300
H2439       H  0.02380722  0.76608262  0.54912857     0.11900
H2440       H  0.50469322  0.70531167  0.49795334     0.12500
C2441       C  0.83966404  0.91490176  0.86372483    -0.17100
C2442       C  0.84823681  0.88722181  0.85333546    -0.32300
H2443       H  0.85348837  0.93128678  0.88419939     0.11900
H2444       H  0.83444501  0.87083370  0.83285614     0.12500
C2445       C  0.90825673  0.55180520  0.68912860    -0.17100
C2446       C  0.94459673  0.57916269  0.69959404    -0.32300
H2447       H  0.90562551  0.53554498  0.66857469     0.11900
H2448       H  0.94727650  0.59541127  0.72016416     0.12500
loop_ 
_geom_bond_atom_site_label_1 
_geom_bond_atom_site_label_2 
_geom_bond_distance 
_geom_bond_site_symmetry_2 
_ccdc_geom_bond_type 
C1          C390   1.479       .  S
C1          N614   1.356       .  A
C1          N618   1.365       .  A
N2            C3   1.353       .  A
N2          C613   1.356   1_545  A
C3            N4   1.355       .  A
C3          C609   1.465       .  S
N4            C5   1.353       .  A
C5          C228   1.472       .  S
C5            N6   1.369       .  A
N6          C613   1.365   1_545  A
C7          C421   1.481       .  S
C7            N8   1.364       .  A
C7           N12   1.357       .  A
N8            C9   1.369       .  A
C9          C498   1.472       .  S
C9         N1234   1.352   1_455  A
N10          C11   1.356       .  A
N10        C1233   1.352       .  A
C11        N1236   1.354       .  A
C11         C610   1.466       .  S
N12        C1235   1.354   1_455  A
C13         C842   1.477       .  S
C13          N14   1.364       .  A
C13          N18   1.356       .  A
N14          C15   1.368       .  A
C15         C426   1.470       .  S
C15          N16   1.352       .  A
N16          C17   1.354       .  A
C17          N18   1.353       .  A
C17         C605   1.463       .  S
C19         C266   1.479       .  S
C19          N20   1.358       .  A
C19          N24   1.362       .  A
N20          C21   1.354       .  A
C21          N22   1.355       .  A
C21         C606   1.465       .  S
N22          C23   1.351       .  A
C23         C282   1.468       .  S
C23          N24   1.368       .  A
C25         C535   1.476       .  S
C25          N26   1.363       .  A
C25          N30   1.356       .  A
N26          C27   1.368       .  A
C27         C336   1.470       .  S
C27          N28   1.353       .  A
N28          C29   1.355       .  A
C29          N30   1.352       .  A
C29         C601   1.463       .  S
C31         C501   1.480       .  S
C31          N32   1.357       .  A
C31          N36   1.364       .  A
N32          C33   1.354       .  A
C33          N34   1.355       .  A
C33         C602   1.464       .  S
N34          C35   1.351       .  A
C35         C424   1.471       .  S
C35          N36   1.369       .  A
C37         C285   1.478       .  S
C37          N38   1.358       .  A
C37          N42   1.362   1_554  A
N38          C39   1.354       .  A
C39          N40   1.354   1_554  A
C39         C597   1.464       .  S
N40          C41   1.350       .  A
C41         C259   1.467       .  S
C41          N42   1.367       .  A
C43         C319   1.475       .  S
C43          N44   1.363       .  A
C43          N48   1.356       .  A
N44          C45   1.367       .  A
C45         C444   1.466       .  S
C45          N46   1.351       .  A
N46          C47   1.354       .  A
C47          N48   1.353       .  A
C47         C598   1.462       .  S
C49         C338   1.476       .  S
C49          N50   1.363       .  A
C49          N54   1.356       .  A
N50          C51   1.367       .  A
C51        C1753   1.469       .  S
C51        N1276   1.353       .  A
N52          C53   1.355       .  A
N52        C1275   1.353       .  A
C53        N1278   1.353       .  A
C53         C594   1.465       .  S
N54        C1277   1.353       .  A
C55         C986   1.479       .  S
C55          N56   1.358       .  A
C55          N60   1.363       .  A
N56          C57   1.354       .  A
C57          N58   1.355       .  A
C57         C593   1.466       .  S
N58          C59   1.352       .  A
C59         C475   1.469       .  S
C59          N60   1.368       .  A
C61         C446   1.475       .  S
C61          N62   1.362       .  A
C61          N66   1.356       .  A
N62          C63   1.367       .  A
C63         C313   1.467       .  S
C63          N64   1.353       .  A
N64          C65   1.355       .  A
C65          N66   1.353       .  A
C65         C589   1.464       .  S
C67        C1094   1.480       .  S
C67          N68   1.363   1_565  A
C67          N72   1.358   1_565  A
N68          C69   1.368       .  A
C69         C367   1.469       .  S
C69          N70   1.351       .  A
N70          C71   1.355       .  A
C71          N72   1.354       .  A
C71         C590   1.466       .  S
C73        C1484   1.476   1_455  S
C73          N74   1.363       .  A
C73          N78   1.356       .  A
N74          C75   1.367       .  A
C75         C422   1.468       .  S
C75          N76   1.353       .  A
N76          C77   1.354       .  A
C77          N78   1.353       .  A
C77         C585   1.463       .  S
C79         C229   1.478       .  S
C79          N84   1.362       .  A
C79         N692   1.358   1_545  A
N80          C81   1.354       .  A
N80         C691   1.358       .  A
C81          N82   1.355       .  A
C81         C586   1.465       .  S
N82         C695   1.351       .  A
C83         C896   1.468       .  S
C83          N84   1.368   1_565  A
C83         N694   1.351       .  A
C85         C392   1.479       .  S
C85          N86   1.363       .  A
C85          N90   1.357       .  A
N86          C87   1.368       .  A
C87         C534   1.469       .  S
C87          N88   1.350       .  A
N88          C89   1.355       .  A
C89          N90   1.354       .  A
C89         C581   1.463       .  S
C91        C1652   1.476       .  S
C91          N92   1.356       .  A
C91          N96   1.363       .  A
N92          C93   1.353       .  A
C93          N94   1.354       .  A
C93         C582   1.462       .  S
N94          C95   1.351       .  A
C95         C263   1.467       .  S
C95          N96   1.368       .  A
C97         C499   1.477       .  S
C97          N98   1.356       .  A
C97         N102   1.364       .  A
N98          C99   1.353       .  A
C99         N100   1.355       .  A
C99         C577   1.465       .  S
N100        C101   1.353       .  A
C101        C339   1.471       .  S
C101        N102   1.368       .  A
C103        C530   1.480       .  S
C103        N104   1.363       .  A
C103        N108   1.358       .  A
N104        C105   1.368       .  A
C105        C391   1.470       .  S
C105        N106   1.352       .  A
N106        C107   1.356       .  A
C107        N108   1.354       .  A
C107        C578   1.466       .  S
C109        C315   1.478       .  S
C109        N110   1.362   1_554  A
C109        N114   1.358       .  A
N110        C111   1.368       .  A
C111        C261   1.468       .  S
C111        N112   1.351       .  A
N112        C113   1.355   1_556  A
C113        N114   1.354       .  A
C113        C573   1.466   1_545  S
C115        C317   1.475       .  S
C115        N116   1.363       .  A
C115        N120   1.356       .  A
N116        C117   1.367       .  A
C117        C479   1.468       .  S
C117        N118   1.353       .  A
N118        C119   1.355       .  A
C119        N120   1.353       .  A
C119        C574   1.464       .  S
C121        C370   1.478       .  S
C121        N122   1.356       .  A
C121        N126   1.364       .  A
N122        C123   1.353       .  A
C123        N124   1.355       .  A
C123        C570   1.465       .  S
N124        C125   1.353       .  A
C125        C532   1.471       .  S
C125        N126   1.368       .  A
C127       C1596   1.481   1_455  S
C127        N128   1.358       .  A
C127        N132   1.363       .  A
N128        C129   1.354       .  A
C129        N130   1.356       .  A
C129        C569   1.466       .  S
N130        C131   1.352       .  A
C131        C477   1.471       .  S
C131        N132   1.369       .  A
C133       C1669   1.480       .  S
C133        N134   1.364       .  A
C133        N138   1.357       .  A
N134        C135   1.369       .  A
C135        C373   1.470       .  S
C135        N136   1.351       .  A
N136        C137   1.355       .  A
C137        N138   1.354       .  A
C137        C565   1.464       .  S
C139        C476   1.477       .  S
C139        N140   1.356       .  A
C139        N144   1.363       .  A
N140        C753   1.353       .  A
C141        N142   1.354       .  A
C141        N752   1.353   1_545  A
C141        C566   1.463       .  S
N142        C755   1.352   1_545  A
C143        C320   1.469       .  S
C143        N144   1.368       .  A
C143        N754   1.352       .  A
C145        C337   1.482       .  S
C145        N146   1.358       .  A
C145        N150   1.364       .  A
N146        C147   1.355       .  A
C147        N148   1.355       .  A
C147        C562   1.465       .  S
N148        C149   1.351       .  A
C149        C481   1.471       .  S
C149        N150   1.369       .  A
C151        C368   1.477       .  S
C151        N156   1.363       .  A
C151        N764   1.356   1_545  A
N152        C153   1.353       .  A
N152        C763   1.356       .  A
C153        N154   1.355       .  A
C153        C561   1.463       .  S
N154        C767   1.353       .  A
C155       C1148   1.470       .  S
C155        N156   1.368   1_565  A
C155        N766   1.353       .  A
C157        C423   1.476       .  S
C157        N158   1.362       .  A
C157        N162   1.357       .  A
N158        C159   1.366       .  A
C159        C231   1.468       .  S
C159        N160   1.353       .  A
N160        C161   1.355       .  A
C161        N162   1.353       .  A
C161        C557   1.465       .  S
C163        C425   1.479       .  S
C163        N164   1.362       .  A
C163        N168   1.358       .  A
N164        C165   1.368       .  A
C165        C500   1.469       .  S
C165        N778   1.352       .  A
N166        C167   1.355       .  A
N166        C777   1.352   1_545  A
C167        N780   1.354   1_545  A
C167        C558   1.466       .  S
N168        C779   1.354       .  A
C169        C533   1.477       .  S
C169        N170   1.357       .  A
C169        N174   1.363       .  A
N170        C171   1.353       .  A
C171        N172   1.355       .  A
C171       C1165   1.464   1_545  S
N172        C173   1.353       .  A
C173        C371   1.469       .  S
C173        N174   1.367       .  A
C175        C531   1.480       .  S
C175        N176   1.358       .  A
C175        N180   1.363       .  A
N176        C177   1.354       .  A
C177        N178   1.355       .  A
C177        C554   1.466       .  S
N178        C179   1.351       .  A
C179        C393   1.469       .  S
C179        N180   1.368       .  A
C181        C480   1.479       .  S
C181        N182   1.357       .  A
C181        N186   1.363       .  A
N182        C183   1.354       .  A
C183        N184   1.356       .  A
C183        C549   1.465       .  S
N184        C185   1.352       .  A
C185        C369   1.471       .  S
C185        N186   1.368       .  A
C187        C478   1.478       .  S
C187        N188   1.364       .  A
C187        N192   1.356       .  A
N188        C189   1.368       .  A
C189       C1540   1.472       .  S
C189       N1414   1.353   1_455  A
N190        C191   1.355       .  A
N190       C1413   1.353       .  A
C191       N1416   1.353       .  A
C191        C550   1.465       .  S
N192       C1415   1.353   1_455  A
C193        C314   1.480       .  S
C193        N194   1.363   1_554  A
C193        N198   1.357       .  A
N194        C195   1.368       .  A
C195        C265   1.469       .  S
C195        N196   1.351       .  A
N196        C197   1.355   1_556  A
C197        N198   1.354       .  A
C197        C545   1.464       .  S
C199        C283   1.478       .  S
C199        N200   1.364       .  A
C199        N204   1.356       .  A
N200        C201   1.368       .  A
C201        C447   1.470       .  S
C201        N202   1.352       .  A
N202        C203   1.354       .  A
C203        N204   1.353       .  A
C203        C546   1.463       .  S
C205        C262   1.475       .  S
C205        N206   1.356       .  A
C205        N210   1.363       .  A
N206        C207   1.353       .  A
C207        N208   1.354       .  A
C207        C541   1.463       .  S
N208        C209   1.352       .  A
C209        C427   1.468       .  S
C209        N210   1.367       .  A
C211        C264   1.480       .  S
C211        N212   1.363       .  A
C211        N216   1.358       .  A
N212        C213   1.368       .  A
C213       C1542   1.469       .  S
C213       N1438   1.350       .  A
N214        C215   1.355       .  A
N214       C1437   1.350       .  A
C215       N1440   1.355       .  A
C215        C542   1.465       .  S
N216       C1439   1.355       .  A
O217        C228   1.302       .  A
O217       Eu253   2.513       .  S
O218        C229   1.295       .  A
O218       Eu252   2.489       .  S
O219        C230   1.292       .  A
O219       Eu225   2.474       .  S
O220        C231   1.300       .  A
O220       Eu225   2.504       .  S
O221        C231   1.283       .  A
O221       Eu255   2.410       .  S
O222        C230   1.292       .  A
O222       Eu254   2.457       .  S
O223        C229   1.292       .  A
O223       Eu225   2.457       .  S
O224        C228   1.283       .  A
O224       Eu225   2.411       .  S
Eu225       O235   2.354       .  S
Eu225       O227   2.360       .  S
Eu225       O226   2.337       .  S
Eu225       O233   2.358       .  S
O226       Eu255   2.361       .  S
O226       Eu252   2.348       .  S
O227       Eu253   2.333       .  S
O227       Eu254   2.347       .  S
C230        C625   1.477   1_545  S
H232        O233   0.964       .  S
O233       Eu254   2.334       .  S
O233       Eu252   2.369       .  S
H234        O235   0.965       .  S
O235       Eu253   2.355       .  S
O235       Eu255   2.356       .  S
O236        C259   1.303       .  A
O236       Eu252   2.522       .  S
O237        C260   1.292       .  A
O237       Eu253   2.475       .  S
O238        C261   1.303       .  A
O238       Eu254   2.519       .  S
O239        C262   1.292       .  A
O239       Eu255   2.474       .  S
O240        C263   1.301       .  A
O240       Eu255   2.508       .  S
O241        C264   1.295       .  A
O241       Eu254   2.488       .  S
O242        C265   1.304       .  A
O242       Eu256   2.522       .  S
O243        C266   1.295       .  A
O243       Eu256   2.491       .  S
O244        C265   1.280       .  A
O244       Eu254   2.396       .  S
O245        C266   1.292       .  A
O245       Eu255   2.458       .  S
O246        C261   1.281       .  A
O246       Eu252   2.396       .  S
O247        C264   1.293       .  A
O247       Eu253   2.461       .  S
O248        C263   1.282       .  A
O248       Eu253   2.403       .  S
O249        C262   1.292       .  A
O249       Eu252   2.456       .  S
O250        C259   1.280       .  A
O250       Eu256   2.392       .  S
O251        C260   1.292       .  A
O251       Eu256   2.455       .  S
Eu252       O270   2.334       .  S
Eu252       O258   2.349       .  S
Eu253       O257   2.362       .  S
Eu253       O268   2.357       .  S
Eu254       O268   2.369       .  S
Eu254       O258   2.350       .  S
Eu255       O257   2.335       .  S
Eu255       O270   2.358       .  S
Eu256       O257   2.346       .  S
Eu256       O268   2.336       .  S
Eu256       O270   2.369       .  S
Eu256       O258   2.349       .  S
C260       C1297   1.476       .  S
H267        O268   0.964       .  S
H269        O270   0.964       .  S
O271        C282   1.303       .  A
O271       Eu307   2.518       .  S
O272        C283   1.292       .  A
O272       Eu306   2.474       .  S
O273        C284   1.303       .  A
O273       Eu279   2.521       .  S
O274        C285   1.295   1_556  A
O274      Eu1503   2.488       .  S
O275        C285   1.292       .  A
O275       Eu309   2.458       .  S
O276        C896   1.280   1_545  A
O276       Eu308   2.395       .  S
O277        C283   1.293       .  A
O277       Eu279   2.460   1_554  S
O278        C282   1.281       .  A
O278      Eu1503   2.396       .  S
Eu279      O1498   2.488   1_455  S
Eu279      O1502   2.396   1_455  S
Eu279       O281   2.350       .  S
Eu279       O287   2.333   1_556  S
Eu279      O1513   2.369   1_456  S
Eu279      O1504   2.347   1_556  S
O280       Eu309   2.335       .  S
O280      Eu1503   2.347   1_554  S
O280      Eu1530   2.360       .  S
O281      Eu1531   2.349   1_455  S
O281       Eu920   2.348       .  S
C284        C695   1.468       .  S
C284        O888   1.280       .  A
H286        O287   0.964       .  S
O287       Eu306   2.357       .  S
O287       Eu920   2.370   1_554  S
H288        O289   0.964       .  S
O289       Eu307   2.335   1_554  S
O289       Eu309   2.357       .  S
O289      Eu1503   2.369   1_554  S
O290        C313   1.300       .  A
O290       Eu918   2.503   1_545  S
O291        C314   1.295   1_556  A
O291       Eu919   2.489   1_545  S
O292        C315   1.295   1_556  A
O292       Eu308   2.490       .  S
O293        C316   1.301       .  A
O293       Eu309   2.511       .  S
O294        C317   1.293       .  A
O294       Eu309   2.475       .  S
O295        C318   1.304       .  A
O295       Eu308   2.524       .  S
O296        C319   1.293       .  A
O296       Eu310   2.474       .  S
O297        C932   1.301   1_545  A
O297      Eu1534   2.510       .  S
O298        C319   1.292       .  A
O298       Eu308   2.454   1_554  S
O299        C320   1.282       .  A
O299       Eu309   2.405       .  S
O300        C315   1.292       .  A
O300       Eu918   2.458   1_545  S
O301       C1542   1.280       .  A
O301       Eu919   2.395   1_545  S
O302        C317   1.292       .  A
O302       Eu307   2.453   1_554  S
O303       C1540   1.283       .  A
O303       Eu306   2.410       .  S
O304        C313   1.283       .  A
O304       Eu310   2.408       .  S
O305        C314   1.293       .  A
O305      Eu1534   2.462       .  S
Eu306       O902   2.503       .  S
Eu306       O912   2.457       .  S
Eu306       O324   2.355       .  S
Eu306      O1504   2.360       .  S
Eu306       O924   2.336       .  S
Eu307       O903   2.489       .  S
Eu307       O913   2.395       .  S
Eu307       O311   2.348   1_556  S
Eu307      O1505   2.349       .  S
Eu307      O2158   2.368   1_556  S
Eu308       O322   2.335   1_556  S
Eu308       O312   2.347   1_556  S
Eu308       O893   2.348   1_545  S
Eu308       O899   2.370   1_546  S
Eu309       O311   2.363       .  S
Eu309      O1548   2.354       .  S
Eu310      O1521   2.510   1_455  S
Eu310      O1529   2.462   1_455  S
Eu310       O322   2.358       .  S
Eu310       O312   2.361       .  S
Eu310      O2147   2.335   1_445  S
Eu310       O936   2.356   1_545  S
O311      Eu2146   2.335       .  S
O312       Eu918   2.336   1_545  S
C316       C1413   1.471       .  S
C316       O1527   1.283       .  A
C318       C1437   1.469       .  S
C318       O1525   1.280   1_455  A
C320        O909   1.301       .  A
H321        O322   0.964       .  S
O322      Eu2143   2.368   1_444  S
H323        O324   0.965       .  S
O324      Eu1533   2.354   1_455  S
O324       Eu922   2.356       .  S
O325        C336   1.301       .  A
O325       Eu361   2.509       .  S
O326        C337   1.295       .  A
O326       Eu360   2.488       .  S
O327        C338   1.293       .  A
O327       Eu333   2.476       .  S
O328        C339   1.301       .  A
O328       Eu333   2.509       .  S
O329        C339   1.283       .  A
O329       Eu363   2.412       .  S
O330        C338   1.292       .  A
O330       Eu362   2.455       .  S
O331        C337   1.294       .  A
O331       Eu333   2.467       .  S
O332        C336   1.283       .  A
O332       Eu333   2.411       .  S
Eu333       O343   2.358       .  S
Eu333       O335   2.362       .  S
Eu333       O334   2.336       .  S
Eu333       O341   2.357       .  S
O334       Eu363   2.360       .  S
O334       Eu360   2.349       .  S
O335       Eu361   2.336       .  S
O335       Eu362   2.348       .  S
H340        O341   0.964       .  S
O341       Eu362   2.336       .  S
O341       Eu360   2.369       .  S
H342        O343   0.965       .  S
O343       Eu361   2.358       .  S
O343       Eu363   2.358       .  S
O344        C367   1.303       .  A
O344       Eu360   2.522       .  S
O345        C368   1.293       .  A
O345       Eu361   2.475       .  S
O346        C369   1.303       .  A
O346       Eu362   2.521       .  S
O347        C370   1.293       .  A
O347       Eu363   2.477       .  S
O348        C371   1.300       .  A
O348       Eu363   2.506       .  S
O349        C372   1.295       .  A
O349       Eu362   2.490       .  S
O350        C373   1.304       .  A
O350       Eu364   2.525       .  S
O351        C374   1.295       .  A
O351       Eu364   2.491       .  S
O352        C373   1.281       .  A
O352       Eu362   2.397       .  S
O353        C374   1.293       .  A
O353       Eu363   2.461       .  S
O354        C369   1.281       .  A
O354       Eu360   2.400       .  S
O355        C372   1.293       .  A
O355       Eu361   2.464       .  S
O356        C371   1.283       .  A
O356       Eu361   2.413       .  S
O357        C370   1.293       .  A
O357       Eu360   2.458       .  S
O358        C367   1.281       .  A
O358       Eu364   2.397       .  S
O359        C368   1.293       .  A
O359       Eu364   2.459       .  S
Eu360       O378   2.335       .  S
Eu360       O366   2.351       .  S
Eu361       O365   2.362       .  S
Eu361       O376   2.359       .  S
Eu362       O376   2.369       .  S
Eu362       O366   2.350       .  S
Eu363       O365   2.338       .  S
Eu363       O378   2.358       .  S
Eu364       O365   2.349       .  S
Eu364       O376   2.334       .  S
Eu364       O378   2.370       .  S
Eu364       O366   2.351       .  S
C372       C1351   1.481       .  S
C374        C667   1.480   1_545  S
H375        O376   0.964       .  S
H377        O378   0.964       .  S
O379        C390   1.292       .  A
O379       Eu415   2.476       .  S
O380        C391   1.303       .  A
O380       Eu414   2.520       .  S
O381        C392   1.295       .  A
O381       Eu387   2.487       .  S
O382        C393   1.304       .  A
O382       Eu387   2.522       .  S
O383        C393   1.280       .  A
O383       Eu417   2.395       .  S
O384        C392   1.293       .  A
O384       Eu416   2.461       .  S
O385        C391   1.281       .  A
O385       Eu387   2.400       .  S
O386        C390   1.293       .  A
O386       Eu387   2.462       .  S
Eu387       O397   2.334       .  S
Eu387       O389   2.348       .  S
Eu387       O388   2.351       .  S
Eu387       O395   2.369       .  S
O388       Eu417   2.350       .  S
O388       Eu414   2.349       .  S
O389       Eu415   2.360       .  S
O389       Eu416   2.336       .  S
H394        O395   0.964       .  S
O395       Eu416   2.357       .  S
O395       Eu414   2.335       .  S
H396        O397   0.964       .  S
O397       Eu415   2.358       .  S
O397       Eu417   2.370       .  S
O398        C421   1.295       .  A
O398       Eu414   2.489       .  S
O399        C422   1.301       .  A
O399       Eu415   2.507       .  S
O400        C423   1.293       .  A
O400       Eu416   2.478       .  S
O401        C424   1.304       .  A
O401       Eu417   2.525       .  S
O402        C425   1.296       .  A
O402       Eu417   2.491       .  S
O403        C426   1.301       .  A
O403       Eu416   2.510       .  S
O404        C427   1.300       .  A
O404       Eu418   2.506       .  S
O405        C428   1.292       .  A
O405       Eu418   2.474       .  S
O406        C427   1.283       .  A
O406       Eu416   2.408       .  S
O407        C428   1.292       .  A
O407       Eu417   2.457       .  S
O408        C423   1.291       .  A
O408       Eu414   2.451       .  S
O409        C426   1.282       .  A
O409       Eu415   2.408       .  S
O410        C425   1.292       .  A
O410       Eu415   2.457       .  S
O411        C424   1.280       .  A
O411       Eu414   2.396       .  S
O412        C421   1.293       .  A
O412       Eu418   2.465       .  S
O413        C422   1.283       .  A
O413       Eu418   2.409       .  S
Eu414       O432   2.369       .  S
Eu414       O420   2.349       .  S
Eu415       O419   2.336       .  S
Eu415       O430   2.356       .  S
Eu416       O430   2.356       .  S
Eu416       O420   2.362       .  S
Eu417       O419   2.347       .  S
Eu417       O432   2.335       .  S
Eu418       O419   2.361       .  S
Eu418       O430   2.358       .  S
Eu418       O432   2.357       .  S
Eu418       O420   2.335       .  S
C428       C1315   1.476   1_455  S
H429        O430   0.965       .  S
H431        O432   0.964       .  S
O433        C444   1.301       .  A
O433       Eu469   2.507       .  S
O434        C445   1.294       .  A
O434       Eu468   2.486       .  S
O435        C446   1.293       .  A
O435       Eu441   2.477       .  S
O436        C447   1.302       .  A
O436       Eu441   2.512       .  S
O437        C447   1.282       .  A
O437       Eu471   2.408       .  S
O438        C446   1.291       .  A
O438       Eu470   2.453       .  S
O439        C445   1.294       .  A
O439       Eu441   2.465       .  S
O440        C444   1.282       .  A
O440       Eu441   2.405       .  S
Eu441       O451   2.356       .  S
Eu441       O443   2.363       .  S
Eu441       O442   2.335       .  S
Eu441       O449   2.356       .  S
O442       Eu471   2.361       .  S
O442       Eu468   2.348       .  S
O443       Eu469   2.336       .  S
O443       Eu470   2.348       .  S
C445       C1357   1.480   1_455  S
H448        O449   0.964       .  S
O449       Eu470   2.335       .  S
O449       Eu468   2.369       .  S
H450        O451   0.965       .  S
O451       Eu469   2.357       .  S
O451       Eu471   2.356       .  S
O452        C475   1.303       .  A
O452       Eu468   2.520       .  S
O453        C476   1.293       .  A
O453       Eu469   2.476       .  S
O454        C477   1.303       .  A
O454       Eu470   2.522       .  S
O455        C478   1.293       .  A
O455       Eu471   2.478       .  S
O456        C479   1.300       .  A
O456       Eu471   2.506       .  S
O457        C480   1.295       .  A
O457       Eu470   2.488       .  S
O458        C481   1.304       .  A
O458       Eu472   2.526       .  S
O459        C482   1.295       .  A
O459       Eu472   2.491       .  S
O460        C481   1.280       .  A
O460       Eu470   2.397       .  S
O461        C482   1.293       .  A
O461       Eu471   2.460       .  S
O462        C477   1.281       .  A
O462       Eu468   2.400       .  S
O463        C480   1.293       .  A
O463       Eu469   2.463       .  S
O464        C479   1.283       .  A
O464       Eu469   2.411       .  S
O465        C478   1.293       .  A
O465       Eu468   2.458       .  S
O466        C475   1.281       .  A
O466       Eu472   2.398       .  S
O467        C476   1.293       .  A
O467       Eu472   2.458       .  S
Eu468       O486   2.334       .  S
Eu468       O474   2.350       .  S
Eu469       O473   2.361       .  S
Eu469       O484   2.358       .  S
Eu470       O484   2.370       .  S
Eu470       O474   2.349       .  S
Eu471       O473   2.337       .  S
Eu471       O486   2.357       .  S
Eu472       O473   2.349       .  S
Eu472       O484   2.335       .  S
Eu472       O486   2.370       .  S
Eu472       O474   2.350       .  S
C482        C679   1.480       .  S
H483        O484   0.964       .  S
H485        O486   0.964       .  S
O487       C1722   1.304       .  A
O487      Eu1135   2.525   1_545  S
O488        C499   1.292       .  A
O488       Eu522   2.474   1_545  S
O489       C1112   1.303   1_545  A
O489       Eu495   2.518       .  S
O490        C501   1.295       .  A
O490       Eu495   2.486       .  S
O491        C501   1.294       .  A
O491       Eu525   2.465       .  S
O492        C500   1.281       .  A
O492       Eu524   2.400       .  S
O493        C499   1.293       .  A
O493       Eu495   2.458       .  S
O494        C498   1.281       .  A
O494       Eu495   2.401       .  S
Eu495       O505   2.368       .  S
Eu495       O496   2.348       .  S
Eu495      O1109   2.351   1_545  S
Eu495      O1115   2.335   1_545  S
O496       Eu525   2.336       .  S
O496       Eu522   2.361   1_545  S
O497       Eu524   2.351       .  S
O497      Eu1107   2.351       .  S
O497      Eu1747   2.351   1_455  S
C498       O1711   1.304   1_455  A
C500       O1101   1.303       .  A
H502       O1115   0.964       .  S
O503       Eu524   2.369       .  S
O503      Eu1107   2.335       .  S
O503      Eu1134   2.358       .  S
O503       H1114   0.964       .  S
H504        O505   0.964       .  S
O505       Eu525   2.358       .  S
O505      Eu2359   2.336   1_445  S
O506        C529   1.300       .  A
O506      Eu1134   2.505       .  S
O507        C530   1.295       .  A
O507       Eu523   2.491       .  S
O508        C531   1.295       .  A
O508       Eu524   2.489       .  S
O509        C532   1.301       .  A
O509       Eu525   2.512       .  S
O510        C533   1.293       .  A
O510      Eu1749   2.477       .  S
O511        C534   1.304       .  A
O511      Eu1748   2.523       .  S
O512        C535   1.292       .  A
O512       Eu526   2.475       .  S
O513        C536   1.301       .  A
O513       Eu526   2.509       .  S
O514        C535   1.293       .  A
O514      Eu1748   2.458       .  S
O515       C1148   1.283   1_545  A
O515      Eu1749   2.411       .  S
O516        C531   1.293       .  A
O516      Eu1134   2.461       .  S
O517        C534   1.280       .  A
O517       Eu523   2.395       .  S
O518        C533   1.292       .  A
O518      Eu1135   2.456   1_545  S
O519        C532   1.283       .  A
O519       Eu522   2.411   1_545  S
O520       C1753   1.283       .  A
O520       Eu526   2.411       .  S
O521        C530   1.293       .  A
O521       Eu526   2.461       .  S
Eu522      O1118   2.505       .  S
Eu522      O1128   2.461       .  S
Eu522      O1115   2.358       .  S
Eu522      O1152   2.357       .  S
Eu522      O1140   2.335       .  S
Eu523      O1099   2.525       .  S
Eu523      O1130   2.456       .  S
Eu523       O527   2.348       .  S
Eu523       O538   2.370       .  S
Eu523      O1721   2.351       .  S
Eu523      O2341   2.335       .  S
Eu524      O1735   2.522   1_455  S
Eu524      O1738   2.457   1_455  S
Eu524       O528   2.348       .  S
Eu524      O1762   2.335   1_455  S
Eu525      O1734   2.477   1_455  S
Eu525      O1739   2.411   1_455  S
Eu525      O2363   2.362   1_445  S
Eu525      O1152   2.357   1_545  S
Eu526       O527   2.336       .  S
Eu526       O538   2.359       .  S
Eu526      O1764   2.357       .  S
Eu526      O1752   2.360       .  S
O527      Eu2361   2.362       .  S
O528      Eu1134   2.335       .  S
O528      Eu1750   2.360   1_455  S
C529       C1275   1.469       .  S
C529       O1744   1.283   1_455  A
C536        C767   1.470       .  S
C536       O1127   1.283       .  A
H537        O538   0.964       .  S
O538      Eu1748   2.335       .  S
H539        O540   0.965       .  S
O540      Eu1134   2.357       .  S
O540      Eu1137   2.357       .  S
O540      Eu1750   2.357   1_455  S
C541        C542   1.341       .  D
C541        H543   1.087       .  S
C542        H544   1.087       .  S
C545       C1770   1.341       .  D
C545       H1771   1.087       .  S
C546       C1769   1.341       .  D
C546        H548   1.087   1_455  S
H547       C1769   1.087       .  S
C549        C550   1.340       .  D
C549        H551   1.087       .  S
C550        H552   1.087       .  S
C553        C783   1.464       .  S
C553        C554   1.341       .  D
C553        H555   1.087       .  S
C554        H556   1.087       .  S
C557        C558   1.341       .  D
C557        H559   1.087       .  S
C558        H560   1.087       .  S
C561        C562   1.341       .  D
C561        H563   1.087       .  S
C562        H564   1.087       .  S
C565        C566   1.341       .  D
C565        H567   1.087       .  S
C566        H568   1.087       .  S
C569        C570   1.341       .  D
C569        H571   1.087       .  S
C570        H572   1.087       .  S
C573       C1186   1.341       .  D
C573        H575   1.087       .  S
C574       C1185   1.341       .  D
C574        H576   1.087       .  S
C577        C578   1.341       .  D
C577        H579   1.087       .  S
C578        H580   1.087       .  S
C581        C582   1.341       .  D
C581        H583   1.087       .  S
C582        H584   1.087       .  S
C585        C586   1.341       .  D
C585        H587   1.087       .  S
C586        H588   1.087       .  S
C589        C590   1.341       .  D
C589        H591   1.087       .  S
C590        H592   1.087       .  S
C593        C594   1.341       .  D
C593        H595   1.087       .  S
C594        H596   1.087       .  S
C597        C598   1.341       .  D
C597        H599   1.087       .  S
C598        H600   1.087       .  S
C601       C1826   1.340       .  D
C601        H603   1.087       .  S
C602       C1825   1.340       .  D
C602        H604   1.087       .  S
C605        C606   1.341       .  D
C605        H607   1.087       .  S
C606        H608   1.087       .  S
C609        C610   1.341       .  D
C609        H611   1.087       .  S
C610        H612   1.087       .  S
C613       C1002   1.479       .  S
N614        C615   1.353       .  A
C615        N616   1.355       .  A
C615       C1221   1.465       .  S
N616        C617   1.353       .  A
C617        C840   1.472       .  S
C617        N618   1.369       .  A
C619       C1033   1.481       .  S
C619        N620   1.364       .  A
C619        N624   1.357       .  A
N620        C621   1.369       .  A
C621       C1110   1.472       .  S
C621       N1846   1.352   1_455  A
N622       C1845   1.352       .  A
N622        C623   1.356       .  A
C623       N1848   1.354       .  A
C623       C1222   1.466       .  S
N624       C1847   1.354   1_455  A
C625        N626   1.364       .  A
C625        N630   1.356       .  A
N626        C627   1.368       .  A
C627       C1038   1.470       .  S
C627        N628   1.352       .  A
N628        C629   1.354       .  A
C629        N630   1.353       .  A
C629       C1217   1.463       .  S
C631        C878   1.479       .  S
C631        N632   1.358       .  A
C631        N636   1.362       .  A
N632        C633   1.354       .  A
C633        N634   1.355       .  A
C633       C1218   1.465       .  S
N634        C635   1.351       .  A
C635        C894   1.468       .  S
C635        N636   1.368       .  A
C637       C1147   1.476       .  S
C637        N638   1.363       .  A
C637        N642   1.356       .  A
N638        C639   1.368       .  A
C639        C948   1.470       .  S
C639        N640   1.353       .  A
N640        C641   1.355       .  A
C641        N642   1.352       .  A
C641       C1213   1.463       .  S
C643       C1113   1.480       .  S
C643        N644   1.357       .  A
C643        N648   1.364       .  A
N644        C645   1.354       .  A
C645        N646   1.355       .  A
C645       C1214   1.464       .  S
N646        C647   1.351       .  A
C647       C1036   1.470       .  S
C647        N648   1.369       .  A
C649        C897   1.478       .  S
C649        N650   1.358       .  A
C649        N654   1.362   1_554  A
N650        C651   1.354       .  A
C651        N652   1.354   1_554  A
C651       C1209   1.463       .  S
N652        C653   1.350       .  A
C653        C871   1.467       .  S
C653        N654   1.367       .  A
C655        C931   1.475       .  S
C655        N656   1.363       .  A
C655        N660   1.356       .  A
N656        C657   1.367       .  A
C657       C1056   1.466       .  S
C657        N658   1.351       .  A
N658        C659   1.354       .  A
C659        N660   1.353       .  A
C659       C1210   1.462       .  S
C661        C950   1.476       .  S
C661        N662   1.363       .  A
C661        N666   1.356       .  A
N662        C663   1.367       .  A
C663       C2365   1.469       .  S
C663       N1888   1.353       .  A
N664       C1887   1.353       .  A
N664        C665   1.355       .  A
C665       N1890   1.353       .  A
C665       C1206   1.465       .  S
N666       C1889   1.353       .  A
C667        N668   1.358       .  A
C667        N672   1.363       .  A
N668        C669   1.354       .  A
C669        N670   1.355       .  A
C669       C1205   1.466       .  S
N670        C671   1.352       .  A
C671       C1087   1.469       .  S
C671        N672   1.368       .  A
C673       C1058   1.475       .  S
C673        N674   1.362       .  A
C673        N678   1.356       .  A
N674        C675   1.367       .  A
C675        C925   1.467       .  S
C675        N676   1.353       .  A
N676        C677   1.355       .  A
C677        N678   1.353       .  A
C677       C1201   1.464       .  S
C679        N680   1.363       .  A
C679        N684   1.358       .  A
N680        C681   1.368       .  A
C681        C979   1.470       .  S
C681        N682   1.351       .  A
N682        C683   1.355       .  A
C683        N684   1.354       .  A
C683       C1202   1.466       .  S
C685       C2096   1.476   1_455  S
C685        N686   1.363       .  A
C685        N690   1.356       .  A
N686        C687   1.367       .  A
C687       C1034   1.468       .  S
C687        N688   1.353       .  A
N688        C689   1.354       .  A
C689        N690   1.352       .  A
C689       C1197   1.463       .  S
C691        C841   1.478       .  S
C691        N696   1.362       .  A
N692        C693   1.354       .  A
C693        N694   1.355       .  A
C693       C1198   1.465       .  S
C695        N696   1.368       .  A
C697       C1004   1.479       .  S
C697        N698   1.363       .  A
C697        N702   1.357       .  A
N698        C699   1.368       .  A
C699       C1146   1.469       .  S
C699        N700   1.350       .  A
N700        C701   1.355       .  A
C701        N702   1.354       .  A
C701       C1193   1.463       .  S
C703       C2264   1.476       .  S
C703        N704   1.356       .  A
C703        N708   1.363       .  A
N704        C705   1.353       .  A
C705        N706   1.354       .  A
C705       C1194   1.462       .  S
N706        C707   1.351       .  A
C707        C875   1.467       .  S
C707        N708   1.367       .  A
C709       C1111   1.477       .  S
C709        N710   1.356       .  A
C709        N714   1.364       .  A
N710        C711   1.353       .  A
C711        N712   1.355       .  A
C711       C1189   1.465       .  S
N712        C713   1.353       .  A
C713        C951   1.471       .  S
C713        N714   1.368       .  A
C715       C1142   1.480       .  S
C715        N716   1.363       .  A
C715        N720   1.358       .  A
N716        C717   1.368       .  A
C717       C1003   1.470       .  S
C717        N718   1.352       .  A
N718        C719   1.356       .  A
C719        N720   1.354       .  A
C719       C1190   1.466       .  S
C721        C927   1.478       .  S
C721        N722   1.362   1_554  A
C721        N726   1.358       .  A
N722        C723   1.367       .  A
C723        C873   1.468       .  S
C723        N724   1.351       .  A
N724        C725   1.355   1_556  A
C725        N726   1.354       .  A
C725       C1185   1.465       .  S
C727        C929   1.476       .  S
C727        N728   1.363       .  A
C727        N732   1.356       .  A
N728        C729   1.367       .  A
C729       C1091   1.469       .  S
C729        N730   1.353       .  A
N730        C731   1.355       .  A
C731        N732   1.353       .  A
C731       C1186   1.464       .  S
C733        C982   1.478       .  S
C733        N734   1.356       .  A
C733        N738   1.364       .  A
N734        C735   1.353       .  A
C735        N736   1.355       .  A
C735       C1182   1.465       .  S
N736        C737   1.353       .  A
C737       C1144   1.471       .  S
C737        N738   1.368       .  A
C739       C2208   1.481   1_455  S
C739        N740   1.357       .  A
C739        N744   1.363       .  A
N740        C741   1.354       .  A
C741        N742   1.356       .  A
C741       C1181   1.466       .  S
N742        C743   1.352       .  A
C743       C1089   1.471       .  S
C743        N744   1.369       .  A
C745       C2281   1.480       .  S
C745        N746   1.364       .  A
C745        N750   1.357       .  A
N746        C747   1.369       .  A
C747        C985   1.470       .  S
C747        N748   1.351       .  A
N748        C749   1.355       .  A
C749        N750   1.354       .  A
C749       C1177   1.464       .  S
C751       C1088   1.477       .  S
C751        N752   1.356       .  A
C751        N756   1.363       .  A
C753        N754   1.354       .  A
C753       C1178   1.463       .  S
C755        C932   1.469       .  S
C755        N756   1.368       .  A
C757        C949   1.482       .  S
C757        N758   1.358       .  A
C757        N762   1.364       .  A
N758        C759   1.355       .  A
C759        N760   1.355       .  A
C759       C1174   1.465       .  S
N760        C761   1.351       .  A
C761       C1093   1.471       .  S
C761        N762   1.369       .  A
C763        C980   1.477       .  S
C763        N768   1.363       .  A
N764        C765   1.353       .  A
C765        N766   1.355       .  A
C765       C1173   1.464       .  S
C767        N768   1.368       .  A
C769       C1035   1.476       .  S
C769        N770   1.362       .  A
C769        N774   1.357       .  A
N770        C771   1.366       .  A
C771        C843   1.468       .  S
C771        N772   1.353       .  A
N772        C773   1.355       .  A
C773        N774   1.353       .  A
C773       C1169   1.465       .  S
C775       C1037   1.478       .  S
C775        N776   1.362       .  A
C775        N780   1.358       .  A
N776        C777   1.368       .  A
C777       C1112   1.469       .  S
N778        C779   1.355       .  A
C779       C1170   1.466       .  S
C781       C1145   1.477       .  S
C781        N782   1.357       .  A
C781        N786   1.363       .  A
N782        C783   1.353       .  A
C783        N784   1.355       .  A
N784        C785   1.353       .  A
C785        C983   1.469       .  S
C785        N786   1.367       .  A
C787       C1143   1.480       .  S
C787        N788   1.358       .  A
C787        N792   1.363       .  A
N788        C789   1.354       .  A
C789        N790   1.355       .  A
C789       C1166   1.466       .  S
N790        C791   1.351       .  A
C791       C1005   1.469       .  S
C791        N792   1.368       .  A
C793       C1092   1.479       .  S
C793        N794   1.357       .  A
C793        N798   1.363       .  A
N794        C795   1.354       .  A
C795        N796   1.356       .  A
C795       C1161   1.465       .  S
N796        C797   1.352       .  A
C797        C981   1.471       .  S
C797        N798   1.368       .  A
C799       C1090   1.478       .  S
C799        N800   1.364       .  A
C799        N804   1.356       .  A
N800        C801   1.368       .  A
C801       C2152   1.472       .  S
C801       N2026   1.353   1_455  A
N802       C2025   1.353       .  A
N802        C803   1.355       .  A
C803       N2028   1.353       .  A
C803       C1162   1.465       .  S
N804       C2027   1.353   1_455  A
C805        C926   1.480       .  S
C805        N806   1.363   1_554  A
C805        N810   1.357       .  A
N806        C807   1.368       .  A
C807        C877   1.469       .  S
C807        N808   1.351       .  A
N808        C809   1.355   1_556  A
C809        N810   1.354       .  A
C809       C1157   1.464       .  S
C811        C895   1.478       .  S
C811        N812   1.364       .  A
C811        N816   1.356       .  A
N812        C813   1.368       .  A
C813       C1059   1.470       .  S
C813        N814   1.352       .  A
N814        C815   1.354       .  A
C815        N816   1.353       .  A
C815       C1158   1.463       .  S
C817        C874   1.475       .  S
C817        N818   1.356       .  A
C817        N822   1.363       .  A
N818        C819   1.353       .  A
C819        N820   1.354       .  A
C819       C1153   1.463       .  S
N820        C821   1.352       .  A
C821       C1039   1.468       .  S
C821        N822   1.367       .  A
C823        C876   1.480       .  S
C823        N824   1.363       .  A
C823        N828   1.358       .  A
N824        C825   1.368       .  A
C825       C2154   1.469       .  S
C825       N2050   1.350       .  A
N826       C2049   1.350       .  A
N826        C827   1.355       .  A
C827       N2052   1.354       .  A
C827       C1154   1.465       .  S
N828       C2051   1.355       .  A
O829        C840   1.302       .  A
O829       Eu865   2.512       .  S
O830        C841   1.295       .  A
O830       Eu864   2.489       .  S
O831        C842   1.292       .  A
O831       Eu837   2.474       .  S
O832        C843   1.300       .  A
O832       Eu837   2.504       .  S
O833        C843   1.283       .  A
O833       Eu867   2.410       .  S
O834        C842   1.292       .  A
O834       Eu866   2.457       .  S
O835        C841   1.292       .  A
O835       Eu837   2.457       .  S
O836        C840   1.283       .  A
O836       Eu837   2.410       .  S
Eu837       O847   2.354       .  S
Eu837       O839   2.360       .  S
Eu837       O838   2.337       .  S
Eu837       O845   2.357       .  S
O838       Eu867   2.361       .  S
O838       Eu864   2.348       .  S
O839       Eu865   2.333       .  S
O839       Eu866   2.347       .  S
H844        O845   0.964       .  S
O845       Eu866   2.334       .  S
O845       Eu864   2.369       .  S
H846        O847   0.965       .  S
O847       Eu865   2.355       .  S
O847       Eu867   2.356       .  S
O848        C871   1.303       .  A
O848       Eu864   2.522       .  S
O849        C872   1.292       .  A
O849       Eu865   2.474       .  S
O850        C873   1.303       .  A
O850       Eu866   2.518       .  S
O851        C874   1.292       .  A
O851       Eu867   2.474       .  S
O852        C875   1.301       .  A
O852       Eu867   2.508       .  S
O853        C876   1.295       .  A
O853       Eu866   2.488       .  S
O854        C877   1.304       .  A
O854       Eu868   2.522       .  S
O855        C878   1.295       .  A
O855       Eu868   2.491       .  S
O856        C877   1.280       .  A
O856       Eu866   2.396       .  S
O857        C878   1.292       .  A
O857       Eu867   2.458       .  S
O858        C873   1.281       .  A
O858       Eu864   2.396       .  S
O859        C876   1.293       .  A
O859       Eu865   2.461       .  S
O860        C875   1.282       .  A
O860       Eu865   2.403       .  S
O861        C874   1.292       .  A
O861       Eu864   2.456       .  S
O862        C871   1.280       .  A
O862       Eu868   2.392       .  S
O863        C872   1.292       .  A
O863       Eu868   2.455       .  S
Eu864       O882   2.334       .  S
Eu864       O870   2.349       .  S
Eu865       O869   2.362       .  S
Eu865       O880   2.357       .  S
Eu866       O880   2.369       .  S
Eu866       O870   2.350       .  S
Eu867       O869   2.335       .  S
Eu867       O882   2.358       .  S
Eu868       O869   2.346       .  S
Eu868       O880   2.336       .  S
Eu868       O882   2.369       .  S
Eu868       O870   2.349       .  S
C872       C1909   1.476       .  S
H879        O880   0.964       .  S
H881        O882   0.964       .  S
O883        C894   1.303       .  A
O883       Eu919   2.518       .  S
O884        C895   1.292       .  A
O884       Eu918   2.474       .  S
O885        C896   1.303       .  A
O885       Eu891   2.521       .  S
O886        C897   1.295   1_556  A
O886      Eu2115   2.487       .  S
O887        C897   1.292       .  A
O887       Eu921   2.458       .  S
O888       Eu920   2.395       .  S
O889        C895   1.293       .  A
O889       Eu891   2.460   1_554  S
O890        C894   1.280       .  A
O890      Eu2115   2.396       .  S
Eu891      O2110   2.488   1_455  S
Eu891      O2114   2.396   1_455  S
Eu891      O2125   2.369   1_456  S
Eu891       O893   2.350       .  S
Eu891      O2116   2.347   1_556  S
Eu891       O899   2.333   1_556  S
O892      Eu2115   2.347   1_554  S
O892       Eu921   2.335       .  S
O892      Eu2142   2.360       .  S
O893      Eu2143   2.350   1_455  S
H898        O899   0.964       .  S
O899       Eu918   2.357       .  S
H900        O901   0.964       .  S
O901      Eu2115   2.369   1_554  S
O901       Eu919   2.336   1_554  S
O901       Eu921   2.357       .  S
O902        C925   1.300       .  A
O903        C926   1.295   1_556  A
O904        C927   1.295   1_556  A
O904       Eu920   2.490       .  S
O905        C928   1.301       .  A
O905       Eu921   2.511       .  S
O906        C929   1.293       .  A
O906       Eu921   2.475       .  S
O907        C930   1.304       .  A
O907       Eu920   2.524       .  S
O908        C931   1.292       .  A
O908       Eu922   2.474       .  S
O909      Eu2146   2.510       .  S
O910        C931   1.292       .  A
O910       Eu920   2.454   1_554  S
O911        C932   1.282       .  A
O911       Eu921   2.405       .  S
O912        C927   1.292       .  A
O913       C2154   1.280       .  A
O914        C929   1.292       .  A
O914       Eu919   2.454   1_554  S
O915       C2152   1.283       .  A
O915       Eu918   2.411       .  S
O916        C925   1.283       .  A
O916       Eu922   2.408       .  S
O917        C926   1.293       .  A
O917      Eu2146   2.462       .  S
Eu918      O2116   2.360       .  S
Eu918       O936   2.355       .  S
Eu919      O2117   2.349       .  S
Eu919       O923   2.348   1_556  S
Eu919      O1546   2.368   1_566  S
Eu920       O934   2.335   1_556  S
Eu920       O924   2.347   1_556  S
Eu921       O923   2.363       .  S
Eu921      O2160   2.354       .  S
Eu922      O2133   2.510   1_455  S
Eu922      O2141   2.462   1_455  S
Eu922      O1535   2.335   1_455  S
Eu922       O934   2.358       .  S
Eu922       O924   2.361       .  S
O923      Eu1534   2.335   1_565  S
C928       C2025   1.471       .  S
C928       O2139   1.283       .  A
C930       C2049   1.469       .  S
C930       O2137   1.280   1_455  A
H933        O934   0.964       .  S
O934      Eu1531   2.368   1_454  S
H935        O936   0.965       .  S
O936      Eu2145   2.354   1_455  S
O937        C948   1.301       .  A
O937       Eu973   2.508       .  S
O938        C949   1.295       .  A
O938       Eu972   2.488       .  S
O939        C950   1.293       .  A
O939       Eu945   2.476       .  S
O940        C951   1.301       .  A
O940       Eu945   2.509       .  S
O941        C951   1.283       .  A
O941       Eu975   2.411       .  S
O942        C950   1.292       .  A
O942       Eu974   2.455       .  S
O943        C949   1.294       .  A
O943       Eu945   2.467       .  S
O944        C948   1.283       .  A
O944       Eu945   2.411       .  S
Eu945       O955   2.358       .  S
Eu945       O947   2.362       .  S
Eu945       O946   2.336       .  S
Eu945       O953   2.357       .  S
O946       Eu975   2.360       .  S
O946       Eu972   2.349       .  S
O947       Eu973   2.336       .  S
O947       Eu974   2.348       .  S
H952        O953   0.964       .  S
O953       Eu974   2.336       .  S
O953       Eu972   2.369       .  S
H954        O955   0.965       .  S
O955       Eu973   2.358       .  S
O955       Eu975   2.358       .  S
O956        C979   1.303       .  A
O956       Eu972   2.522       .  S
O957        C980   1.293       .  A
O957       Eu973   2.475       .  S
O958        C981   1.303       .  A
O958       Eu974   2.521       .  S
O959        C982   1.293       .  A
O959       Eu975   2.477       .  S
O960        C983   1.300       .  A
O960       Eu975   2.506       .  S
O961        C984   1.295       .  A
O961       Eu974   2.490       .  S
O962        C985   1.304       .  A
O962       Eu976   2.525       .  S
O963        C986   1.295       .  A
O963       Eu976   2.491       .  S
O964        C985   1.281       .  A
O964       Eu974   2.397       .  S
O965        C986   1.293       .  A
O965       Eu975   2.461       .  S
O966        C981   1.281       .  A
O966       Eu972   2.400       .  S
O967        C984   1.293       .  A
O967       Eu973   2.464       .  S
O968        C983   1.283       .  A
O968       Eu973   2.413       .  S
O969        C982   1.293       .  A
O969       Eu972   2.458       .  S
O970        C979   1.281       .  A
O970       Eu976   2.397       .  S
O971        C980   1.293       .  A
O971       Eu976   2.459       .  S
Eu972       O990   2.335       .  S
Eu972       O978   2.351       .  S
Eu973       O977   2.362       .  S
Eu973       O988   2.359       .  S
Eu974       O988   2.369       .  S
Eu974       O978   2.350       .  S
Eu975       O977   2.338       .  S
Eu975       O990   2.358       .  S
Eu976       O977   2.348       .  S
Eu976       O988   2.334       .  S
Eu976       O990   2.370       .  S
Eu976       O978   2.351       .  S
C984       C1963   1.481       .  S
H987        O988   0.964       .  S
H989        O990   0.964       .  S
O991       C1002   1.292       .  A
O991      Eu1027   2.476       .  S
O992       C1003   1.303       .  A
O992      Eu1026   2.520       .  S
O993       C1004   1.295       .  A
O993       Eu999   2.487       .  S
O994       C1005   1.303       .  A
O994       Eu999   2.522       .  S
O995       C1005   1.280       .  A
O995      Eu1029   2.396       .  S
O996       C1004   1.293       .  A
O996      Eu1028   2.461       .  S
O997       C1003   1.281       .  A
O997       Eu999   2.400       .  S
O998       C1002   1.293       .  A
O998       Eu999   2.462       .  S
Eu999      O1009   2.334       .  S
Eu999      O1001   2.348       .  S
Eu999      O1000   2.351       .  S
Eu999      O1007   2.369       .  S
O1000     Eu1029   2.350       .  S
O1000     Eu1026   2.349       .  S
O1001     Eu1027   2.361       .  S
O1001     Eu1028   2.336       .  S
H1006      O1007   0.964       .  S
O1007     Eu1028   2.357       .  S
O1007     Eu1026   2.335       .  S
H1008      O1009   0.964       .  S
O1009     Eu1027   2.358       .  S
O1009     Eu1029   2.370       .  S
O1010      C1033   1.295       .  A
O1010     Eu1026   2.489       .  S
O1011      C1034   1.301       .  A
O1011     Eu1027   2.507       .  S
O1012      C1035   1.293       .  A
O1012     Eu1028   2.478       .  S
O1013      C1036   1.304       .  A
O1013     Eu1029   2.525       .  S
O1014      C1037   1.296       .  A
O1014     Eu1029   2.491       .  S
O1015      C1038   1.301       .  A
O1015     Eu1028   2.511       .  S
O1016      C1039   1.300       .  A
O1016     Eu1030   2.506       .  S
O1017      C1040   1.292       .  A
O1017     Eu1030   2.474       .  S
O1018      C1039   1.282       .  A
O1018     Eu1028   2.408       .  S
O1019      C1040   1.292       .  A
O1019     Eu1029   2.458       .  S
O1020      C1035   1.291       .  A
O1020     Eu1026   2.451       .  S
O1021      C1038   1.282       .  A
O1021     Eu1027   2.408       .  S
O1022      C1037   1.292       .  A
O1022     Eu1027   2.457       .  S
O1023      C1036   1.280       .  A
O1023     Eu1026   2.396       .  S
O1024      C1033   1.294       .  A
O1024     Eu1030   2.465       .  S
O1025      C1034   1.283       .  A
O1025     Eu1030   2.409       .  S
Eu1026     O1044   2.369       .  S
Eu1026     O1032   2.349       .  S
Eu1027     O1031   2.336       .  S
Eu1027     O1042   2.356       .  S
Eu1028     O1042   2.356       .  S
Eu1028     O1032   2.362       .  S
Eu1029     O1031   2.347       .  S
Eu1029     O1044   2.335       .  S
Eu1030     O1031   2.361       .  S
Eu1030     O1042   2.358       .  S
Eu1030     O1044   2.357       .  S
Eu1030     O1032   2.335       .  S
C1040      C1927   1.476   1_455  S
H1041      O1042   0.965       .  S
H1043      O1044   0.964       .  S
O1045      C1056   1.301       .  A
O1045     Eu1081   2.507       .  S
O1046      C1057   1.294       .  A
O1046     Eu1080   2.485       .  S
O1047      C1058   1.293       .  A
O1047     Eu1053   2.477       .  S
O1048      C1059   1.302       .  A
O1048     Eu1053   2.512       .  S
O1049      C1059   1.282       .  A
O1049     Eu1083   2.407       .  S
O1050      C1058   1.292       .  A
O1050     Eu1082   2.453       .  S
O1051      C1057   1.294       .  A
O1051     Eu1053   2.464       .  S
O1052      C1056   1.282       .  A
O1052     Eu1053   2.405       .  S
Eu1053     O1063   2.357       .  S
Eu1053     O1055   2.363       .  S
Eu1053     O1054   2.335       .  S
Eu1053     O1061   2.357       .  S
O1054     Eu1083   2.361       .  S
O1054     Eu1080   2.348       .  S
O1055     Eu1081   2.336       .  S
O1055     Eu1082   2.348       .  S
C1057      C1969   1.480   1_455  S
H1060      O1061   0.964       .  S
O1061     Eu1082   2.336       .  S
O1061     Eu1080   2.369       .  S
H1062      O1063   0.965       .  S
O1063     Eu1081   2.357       .  S
O1063     Eu1083   2.356       .  S
O1064      C1087   1.303       .  A
O1064     Eu1080   2.520       .  S
O1065      C1088   1.293       .  A
O1065     Eu1081   2.476       .  S
O1066      C1089   1.303       .  A
O1066     Eu1082   2.522       .  S
O1067      C1090   1.293       .  A
O1067     Eu1083   2.477       .  S
O1068      C1091   1.300       .  A
O1068     Eu1083   2.505       .  S
O1069      C1092   1.295       .  A
O1069     Eu1082   2.488       .  S
O1070      C1093   1.304       .  A
O1070     Eu1084   2.526       .  S
O1071      C1094   1.295       .  A
O1071     Eu1084   2.491       .  S
O1072      C1093   1.280       .  A
O1072     Eu1082   2.397       .  S
O1073      C1094   1.293       .  A
O1073     Eu1083   2.460       .  S
O1074      C1089   1.281       .  A
O1074     Eu1080   2.399       .  S
O1075      C1092   1.293       .  A
O1075     Eu1081   2.463       .  S
O1076      C1091   1.283       .  A
O1076     Eu1081   2.412       .  S
O1077      C1090   1.292       .  A
O1077     Eu1080   2.458       .  S
O1078      C1087   1.281       .  A
O1078     Eu1084   2.397       .  S
O1079      C1088   1.293       .  A
O1079     Eu1084   2.458       .  S
Eu1080     O1098   2.334       .  S
Eu1080     O1086   2.350       .  S
Eu1081     O1085   2.361       .  S
Eu1081     O1096   2.358       .  S
Eu1082     O1096   2.370       .  S
Eu1082     O1086   2.349       .  S
Eu1083     O1085   2.337       .  S
Eu1083     O1098   2.357       .  S
Eu1084     O1085   2.349       .  S
Eu1084     O1096   2.335       .  S
Eu1084     O1098   2.370       .  S
Eu1084     O1086   2.349       .  S
H1095      O1096   0.964       .  S
H1097      O1098   0.964       .  S
O1099      C2334   1.304       .  A
O1100      C1111   1.292       .  A
O1100     Eu1134   2.474       .  S
O1101     Eu1107   2.517       .  S
O1102      C1113   1.295       .  A
O1102     Eu1107   2.486       .  S
O1103      C1113   1.294       .  A
O1103     Eu1137   2.465       .  S
O1104      C1112   1.281       .  A
O1104     Eu1136   2.399       .  S
O1105      C1111   1.292       .  A
O1105     Eu1107   2.458       .  S
O1106      C1110   1.281       .  A
O1106     Eu1107   2.401       .  S
Eu1107     O1117   2.368       .  S
Eu1107     O1108   2.348       .  S
O1108     Eu1137   2.336       .  S
O1108     Eu1134   2.361       .  S
O1109     Eu2359   2.351   1_455  S
O1109     Eu1136   2.351       .  S
C1110      O2323   1.304   1_455  A
O1115     Eu1136   2.369       .  S
H1116      O1117   0.964       .  S
O1117     Eu1747   2.335   1_455  S
O1117     Eu1137   2.358       .  S
O1118      C1141   1.300       .  A
O1119      C1142   1.295       .  A
O1119     Eu1135   2.491       .  S
O1120      C1143   1.295       .  A
O1120     Eu1136   2.489       .  S
O1121      C1144   1.301       .  A
O1121     Eu1137   2.511       .  S
O1122      C1145   1.293       .  A
O1122     Eu2361   2.477       .  S
O1123      C1146   1.304       .  A
O1123     Eu2360   2.523       .  S
O1124      C1147   1.292       .  A
O1124     Eu1138   2.474       .  S
O1125      C1148   1.301       .  A
O1125     Eu1138   2.509       .  S
O1126      C1147   1.292       .  A
O1126     Eu2360   2.457       .  S
O1127     Eu2361   2.411       .  S
O1128      C1143   1.293       .  A
O1129      C1146   1.280       .  A
O1129     Eu1135   2.395       .  S
O1130      C1145   1.292       .  A
O1131      C1144   1.283       .  A
O1131     Eu1134   2.411       .  S
O1132      C2365   1.283       .  A
O1132     Eu1138   2.411       .  S
O1133      C1142   1.293       .  A
O1133     Eu1138   2.462       .  S
Eu1135     O2333   2.351       .  S
Eu1135     O1729   2.335   1_565  S
Eu1135     O1139   2.349       .  S
Eu1135     O1150   2.370       .  S
Eu1136     O2347   2.523   1_455  S
Eu1136     O2350   2.457   1_455  S
Eu1136     O2374   2.335   1_455  S
Eu1136     O1140   2.348       .  S
Eu1137     O2346   2.477   1_455  S
Eu1137     O2351   2.411   1_455  S
Eu1137     O1751   2.362   1_455  S
Eu1138     O1139   2.336       .  S
Eu1138     O1150   2.359       .  S
Eu1138     O2376   2.357       .  S
Eu1138     O2364   2.360       .  S
O1139     Eu1749   2.362   1_565  S
O1140     Eu2362   2.360   1_455  S
C1141      C1887   1.469       .  S
C1141      O2356   1.283   1_455  A
H1149      O1150   0.964       .  S
O1150     Eu2360   2.335       .  S
H1151      O1152   0.965       .  S
O1152     Eu2362   2.357   1_455  S
C1153      C1154   1.341       .  D
C1153      H1155   1.087       .  S
C1154      H1156   1.087       .  S
C1157      C2382   1.341       .  D
C1157      H2383   1.087       .  S
C1158      C2381   1.341       .  D
C1158      H1160   1.087   1_455  S
H1159      C2381   1.087       .  S
C1161      C1162   1.340       .  D
C1161      H1163   1.087       .  S
C1162      H1164   1.087       .  S
C1165      C1166   1.341       .  D
C1165      H1167   1.087       .  S
C1166      H1168   1.087       .  S
C1169      C1170   1.341       .  D
C1169      H1171   1.087       .  S
C1170      H1172   1.087       .  S
C1173      C1174   1.341       .  D
C1173      H1175   1.087       .  S
C1174      H1176   1.087       .  S
C1177      C1178   1.341       .  D
C1177      H1179   1.087       .  S
C1178      H1180   1.087       .  S
C1181      C1182   1.341       .  D
C1181      H1183   1.087       .  S
C1182      H1184   1.087       .  S
C1185      H1187   1.087       .  S
C1186      H1188   1.087       .  S
C1189      C1190   1.341       .  D
C1189      H1191   1.087       .  S
C1190      H1192   1.087       .  S
C1193      C1194   1.341       .  D
C1193      H1195   1.087       .  S
C1194      H1196   1.087       .  S
C1197      C1198   1.341       .  D
C1197      H1199   1.087       .  S
C1198      H1200   1.087       .  S
C1201      C1202   1.341       .  D
C1201      H1203   1.087       .  S
C1202      H1204   1.087       .  S
C1205      C1206   1.341       .  D
C1205      H1207   1.087       .  S
C1206      H1208   1.087       .  S
C1209      C1210   1.341       .  D
C1209      H1211   1.087       .  S
C1210      H1212   1.087       .  S
C1213      C2438   1.340       .  D
C1213      H1215   1.087       .  S
C1214      C2437   1.340       .  D
C1214      H1216   1.087       .  S
C1217      C1218   1.341       .  D
C1217      H1219   1.087       .  S
C1218      H1220   1.087       .  S
C1221      C1222   1.341       .  D
C1221      H1223   1.087       .  S
C1222      H1224   1.087       .  S
C1225      C1614   1.479       .  S
C1225      N1838   1.356       .  A
C1225      N1842   1.365       .  A
N1226      C1837   1.356   1_545  A
N1226      C1227   1.353       .  A
C1227      N1228   1.355       .  A
C1227      C1833   1.465       .  S
N1228      C1229   1.353       .  A
C1229      C1452   1.472       .  S
C1229      N1230   1.369       .  A
N1230      C1837   1.365   1_545  A
C1231      C1645   1.481       .  S
C1231      N1232   1.364       .  A
C1231      N1236   1.357       .  A
N1232      C1233   1.369       .  A
C1233      C1722   1.473       .  S
N1234      C1235   1.356       .  A
C1235      C1834   1.466       .  S
C1237      C2066   1.477       .  S
C1237      N1238   1.364       .  A
C1237      N1242   1.356       .  A
N1238      C1239   1.368       .  A
C1239      C1650   1.470       .  S
C1239      N1240   1.352       .  A
N1240      C1241   1.354       .  A
C1241      N1242   1.353       .  A
C1241      C1829   1.463       .  S
C1243      C1490   1.479       .  S
C1243      N1244   1.358       .  A
C1243      N1248   1.362       .  A
N1244      C1245   1.354       .  A
C1245      N1246   1.355       .  A
C1245      C1830   1.465       .  S
N1246      C1247   1.351       .  A
C1247      C1506   1.468       .  S
C1247      N1248   1.368       .  A
C1249      C1759   1.476       .  S
C1249      N1250   1.363       .  A
C1249      N1254   1.356       .  A
N1250      C1251   1.368       .  A
C1251      C1560   1.470       .  S
C1251      N1252   1.353       .  A
N1252      C1253   1.355       .  A
C1253      N1254   1.352       .  A
C1253      C1825   1.463   1_655  S
C1255      C1725   1.480       .  S
C1255      N1256   1.357       .  A
C1255      N1260   1.364       .  A
N1256      C1257   1.354       .  A
C1257      N1258   1.355       .  A
C1257      C1826   1.464       .  S
N1258      C1259   1.351       .  A
C1259      C1648   1.471       .  S
C1259      N1260   1.369       .  A
C1261      C1509   1.478       .  S
C1261      N1262   1.358       .  A
C1261      N1266   1.362   1_554  A
N1262      C1263   1.354       .  A
C1263      N1264   1.354   1_554  A
C1263      C1821   1.464       .  S
N1264      C1265   1.350       .  A
C1265      C1483   1.467       .  S
C1265      N1266   1.367       .  A
C1267      C1543   1.475       .  S
C1267      N1268   1.363       .  A
C1267      N1272   1.356       .  A
N1268      C1269   1.367       .  A
C1269      C1668   1.466       .  S
C1269      N1270   1.351       .  A
N1270      C1271   1.354       .  A
C1271      N1272   1.353       .  A
C1271      C1822   1.462       .  S
C1273      C1562   1.476       .  S
C1273      N1274   1.363       .  A
C1273      N1278   1.356   1_655  A
N1274      C1275   1.367   1_655  A
N1276      C1277   1.355       .  A
C1277      C1818   1.465       .  S
C1279      C2210   1.480       .  S
C1279      N1280   1.358       .  A
C1279      N1284   1.363       .  A
N1280      C1281   1.354       .  A
C1281      N1282   1.355       .  A
C1281      C1817   1.466       .  S
N1282      C1283   1.352       .  A
C1283      C1699   1.470       .  S
C1283      N1284   1.368       .  A
C1285      C1670   1.476       .  S
C1285      N1286   1.362       .  A
C1285      N1290   1.356       .  A
N1286      C1287   1.367       .  A
C1287      C1537   1.467       .  S
C1287      N1288   1.353       .  A
N1288      C1289   1.355       .  A
C1289      N1290   1.353       .  A
C1289      C1813   1.464       .  S
C1291      C2318   1.480       .  S
C1291      N1292   1.363   1_565  A
C1291      N1296   1.358   1_565  A
N1292      C1293   1.368       .  A
C1293      C1591   1.470       .  S
C1293      N1294   1.351       .  A
N1294      C1295   1.355       .  A
C1295      N1296   1.354       .  A
C1295      C1814   1.466       .  S
C1297      N1298   1.363       .  A
C1297      N1302   1.356       .  A
N1298      C1299   1.367       .  A
C1299      C1646   1.468       .  S
C1299      N1300   1.353       .  A
N1300      C1301   1.354       .  A
C1301      N1302   1.353       .  A
C1301      C1809   1.463       .  S
C1303      C1453   1.478       .  S
C1303      N1916   1.358   1_545  A
C1303      N1308   1.362       .  A
N1304      C1915   1.358       .  A
N1304      C1305   1.354       .  A
C1305      N1306   1.355       .  A
C1305      C1810   1.465       .  S
N1306      C1919   1.351       .  A
C1307      C2120   1.468       .  S
C1307      N1918   1.351       .  A
C1307      N1308   1.368   1_565  A
C1309      C1616   1.479       .  S
C1309      N1310   1.363       .  A
C1309      N1314   1.357       .  A
N1310      C1311   1.368       .  A
C1311      C1758   1.469       .  S
C1311      N1312   1.350       .  A
N1312      C1313   1.355       .  A
C1313      N1314   1.354       .  A
C1313      C1805   1.463       .  S
C1315      N1316   1.356       .  A
C1315      N1320   1.363       .  A
N1316      C1317   1.353       .  A
C1317      N1318   1.354       .  A
C1317      C1806   1.462       .  S
N1318      C1319   1.351       .  A
C1319      C1487   1.467       .  S
C1319      N1320   1.368       .  A
C1321      C1723   1.477       .  S
C1321      N1322   1.356       .  A
C1321      N1326   1.364       .  A
N1322      C1323   1.353       .  A
C1323      N1324   1.355       .  A
C1323      C1801   1.465       .  S
N1324      C1325   1.353       .  A
C1325      C1563   1.471       .  S
C1325      N1326   1.368       .  A
C1327      C1754   1.480       .  S
C1327      N1328   1.363       .  A
C1327      N1332   1.358       .  A
N1328      C1329   1.368       .  A
C1329      C1615   1.470       .  S
C1329      N1330   1.352       .  A
N1330      C1331   1.356       .  A
C1331      N1332   1.354       .  A
C1331      C1802   1.466       .  S
C1333      C1539   1.478       .  S
C1333      N1334   1.362   1_554  A
C1333      N1338   1.358       .  A
N1334      C1335   1.368       .  A
C1335      C1485   1.468       .  S
C1335      N1336   1.351       .  A
N1336      C1337   1.355   1_556  A
C1337      N1338   1.354       .  A
C1337      C1797   1.466   1_545  S
C1339      C1541   1.476       .  S
C1339      N1340   1.363       .  A
C1339      N1344   1.356       .  A
N1340      C1341   1.367       .  A
C1341      C1703   1.468       .  S
C1341      N1342   1.353       .  A
N1342      C1343   1.355       .  A
C1343      N1344   1.353       .  A
C1343      C1798   1.464       .  S
C1345      C1594   1.478       .  S
C1345      N1346   1.356       .  A
C1345      N1350   1.364       .  A
N1346      C1347   1.353       .  A
C1347      N1348   1.355       .  A
C1347      C1794   1.465       .  S
N1348      C1349   1.353       .  A
C1349      C1756   1.471       .  S
C1349      N1350   1.368       .  A
C1351      N1352   1.357       .  A
C1351      N1356   1.363       .  A
N1352      C1353   1.354       .  A
C1353      N1354   1.356       .  A
C1353      C1793   1.466       .  S
N1354      C1355   1.352       .  A
C1355      C1701   1.471       .  S
C1355      N1356   1.369       .  A
C1357      N1358   1.364       .  A
C1357      N1362   1.357       .  A
N1358      C1359   1.369       .  A
C1359      C1597   1.470       .  S
C1359      N1360   1.351       .  A
N1360      C1361   1.355       .  A
C1361      N1362   1.354       .  A
C1361      C1789   1.464       .  S
C1363      C1700   1.477       .  S
C1363      N1364   1.356       .  A
C1363      N1368   1.363       .  A
N1364      C1977   1.353       .  A
C1365      N1976   1.353   1_545  A
C1365      N1366   1.354       .  A
C1365      C1790   1.463       .  S
N1366      C1979   1.352   1_545  A
C1367      C1544   1.469       .  S
C1367      N1978   1.352       .  A
C1367      N1368   1.368       .  A
C1369      C1561   1.482       .  S
C1369      N1370   1.358       .  A
C1369      N1374   1.364       .  A
N1370      C1371   1.355       .  A
C1371      N1372   1.355       .  A
C1371      C1786   1.465       .  S
N1372      C1373   1.351       .  A
C1373      C1705   1.471       .  S
C1373      N1374   1.369       .  A
C1375      C1592   1.477       .  S
C1375      N1988   1.356   1_545  A
C1375      N1380   1.363       .  A
N1376      C1987   1.356       .  A
N1376      C1377   1.353       .  A
C1377      N1378   1.355       .  A
C1377      C1785   1.464       .  S
N1378      C1991   1.353       .  A
C1379      C2372   1.470       .  S
C1379      N1990   1.353       .  A
C1379      N1380   1.368   1_565  A
C1381      C1647   1.475       .  S
C1381      N1382   1.362       .  A
C1381      N1386   1.357       .  A
N1382      C1383   1.366       .  A
C1383      C1455   1.467       .  S
C1383      N1384   1.353       .  A
N1384      C1385   1.355       .  A
C1385      N1386   1.353       .  A
C1385      C1781   1.465       .  S
C1387      C1649   1.478       .  S
C1387      N1388   1.362       .  A
C1387      N1392   1.358       .  A
N1388      C1389   1.368       .  A
C1389      C1724   1.469       .  S
C1389      N2002   1.352       .  A
N1390      C2001   1.352   1_545  A
N1390      C1391   1.355       .  A
C1391      N2004   1.354   1_545  A
C1391      C1782   1.466       .  S
N1392      C2003   1.354       .  A
C1393      C1757   1.477       .  S
C1393      N1394   1.357       .  A
C1393      N1398   1.363       .  A
N1394      C1395   1.353       .  A
C1395      N1396   1.355       .  A
C1395      C2389   1.464   1_545  S
N1396      C1397   1.353       .  A
C1397      C1595   1.469       .  S
C1397      N1398   1.367       .  A
C1399      C1755   1.479       .  S
C1399      N1400   1.358       .  A
C1399      N1404   1.363       .  A
N1400      C1401   1.354       .  A
C1401      N1402   1.355       .  A
C1401      C1778   1.466       .  S
N1402      C1403   1.351       .  A
C1403      C1617   1.469       .  S
C1403      N1404   1.368       .  A
C1405      C1704   1.479       .  S
C1405      N1406   1.357       .  A
C1405      N1410   1.363       .  A
N1406      C1407   1.354       .  A
C1407      N1408   1.356       .  A
C1407      C1773   1.465       .  S
N1408      C1409   1.352       .  A
C1409      C1593   1.471       .  S
C1409      N1410   1.368       .  A
C1411      C1702   1.478       .  S
C1411      N1412   1.364       .  A
C1411      N1416   1.356       .  A
N1412      C1413   1.368       .  A
N1414      C1415   1.355       .  A
C1415      C1774   1.465       .  S
C1417      C1538   1.480       .  S
C1417      N1418   1.363   1_554  A
C1417      N1422   1.357       .  A
N1418      C1419   1.368       .  A
C1419      C1489   1.469       .  S
C1419      N1420   1.351       .  A
N1420      C1421   1.355   1_556  A
C1421      N1422   1.354       .  A
C1421      C1769   1.464   1_655  S
C1423      C1507   1.478       .  S
C1423      N1424   1.364       .  A
C1423      N1428   1.356       .  A
N1424      C1425   1.368       .  A
C1425      C1671   1.470       .  S
C1425      N1426   1.352       .  A
N1426      C1427   1.354       .  A
C1427      N1428   1.353       .  A
C1427      C1770   1.463       .  S
C1429      C1486   1.475       .  S
C1429      N1430   1.356       .  A
C1429      N1434   1.363       .  A
N1430      C1431   1.353       .  A
C1431      N1432   1.354       .  A
C1431      C1765   1.463       .  S
N1432      C1433   1.352       .  A
C1433      C1651   1.467       .  S
C1433      N1434   1.367       .  A
C1435      C1488   1.480       .  S
C1435      N1436   1.363       .  A
C1435      N1440   1.358   1_655  A
N1436      C1437   1.368   1_655  A
N1438      C1439   1.355       .  A
C1439      C1766   1.465       .  S
O1441      C1452   1.302       .  A
O1441     Eu1477   2.513       .  S
O1442      C1453   1.295       .  A
O1442     Eu1476   2.490       .  S
O1443      C1454   1.292       .  A
O1443     Eu1449   2.474       .  S
O1444      C1455   1.300       .  A
O1444     Eu1449   2.504       .  S
O1445      C1455   1.283       .  A
O1445     Eu1479   2.410       .  S
O1446      C1454   1.293       .  A
O1446     Eu1478   2.458       .  S
O1447      C1453   1.292       .  A
O1447     Eu1449   2.457       .  S
O1448      C1452   1.283       .  A
O1448     Eu1449   2.410       .  S
Eu1449     O1459   2.355       .  S
Eu1449     O1451   2.360       .  S
Eu1449     O1450   2.337       .  S
Eu1449     O1457   2.358       .  S
O1450     Eu1479   2.361       .  S
O1450     Eu1476   2.348       .  S
O1451     Eu1477   2.333       .  S
O1451     Eu1478   2.347       .  S
C1454      C1849   1.477   1_545  S
H1456      O1457   0.964       .  S
O1457     Eu1478   2.333       .  S
O1457     Eu1476   2.369       .  S
H1458      O1459   0.965       .  S
O1459     Eu1477   2.355       .  S
O1459     Eu1479   2.356       .  S
O1460      C1483   1.303       .  A
O1460     Eu1476   2.521       .  S
O1461      C1484   1.292       .  A
O1461     Eu1477   2.475       .  S
O1462      C1485   1.303       .  A
O1462     Eu1478   2.519       .  S
O1463      C1486   1.292       .  A
O1463     Eu1479   2.474       .  S
O1464      C1487   1.301       .  A
O1464     Eu1479   2.509       .  S
O1465      C1488   1.295       .  A
O1465     Eu1478   2.488       .  S
O1466      C1489   1.304       .  A
O1466     Eu1480   2.523       .  S
O1467      C1490   1.295       .  A
O1467     Eu1480   2.491       .  S
O1468      C1489   1.280       .  A
O1468     Eu1478   2.396       .  S
O1469      C1490   1.292       .  A
O1469     Eu1479   2.459       .  S
O1470      C1485   1.281       .  A
O1470     Eu1476   2.396       .  S
O1471      C1488   1.293       .  A
O1471     Eu1477   2.461       .  S
O1472      C1487   1.282       .  A
O1472     Eu1477   2.403       .  S
O1473      C1486   1.292       .  A
O1473     Eu1476   2.456       .  S
O1474      C1483   1.280       .  A
O1474     Eu1480   2.393       .  S
O1475      C1484   1.292       .  A
O1475     Eu1480   2.455       .  S
Eu1476     O1494   2.335       .  S
Eu1476     O1482   2.349       .  S
Eu1477     O1481   2.362       .  S
Eu1477     O1492   2.357       .  S
Eu1478     O1492   2.369       .  S
Eu1478     O1482   2.350       .  S
Eu1479     O1481   2.335       .  S
Eu1479     O1494   2.358       .  S
Eu1480     O1481   2.346       .  S
Eu1480     O1492   2.336       .  S
Eu1480     O1494   2.369       .  S
Eu1480     O1482   2.349       .  S
H1491      O1492   0.964       .  S
H1493      O1494   0.964       .  S
O1495      C1506   1.303       .  A
O1495     Eu1531   2.519       .  S
O1496      C1507   1.292       .  A
O1496     Eu1530   2.474       .  S
O1497      C1508   1.303       .  A
O1497     Eu1503   2.520       .  S
O1498      C1509   1.295   1_556  A
O1499      C1509   1.292       .  A
O1499     Eu1533   2.458       .  S
O1500      C2120   1.280   1_545  A
O1500     Eu1532   2.395       .  S
O1501      C1507   1.293       .  A
O1501     Eu1503   2.460   1_554  S
O1502      C1506   1.280       .  A
Eu1503     O1505   2.350       .  S
Eu1503     O1511   2.333   1_556  S
O1504     Eu1533   2.336   1_455  S
O1505     Eu2144   2.348       .  S
C1508      C1919   1.468       .  S
C1508      O2112   1.280       .  A
H1510      O1511   0.964       .  S
O1511     Eu2144   2.369   1_554  S
O1511     Eu1530   2.357       .  S
H1512      O1513   0.964       .  S
O1513     Eu1531   2.336   1_554  S
O1513     Eu1533   2.357       .  S
O1514      C1537   1.300       .  A
O1514     Eu2142   2.503   1_545  S
O1515      C1538   1.295   1_556  A
O1515     Eu2143   2.489   1_545  S
O1516      C1539   1.295   1_556  A
O1516     Eu1532   2.490       .  S
O1517      C1540   1.301   1_655  A
O1517     Eu1533   2.512       .  S
O1518      C1541   1.293       .  A
O1518     Eu1533   2.476       .  S
O1519      C1542   1.304       .  A
O1519     Eu1532   2.524       .  S
O1520      C1543   1.293       .  A
O1520     Eu1534   2.474       .  S
O1521      C2156   1.301   1_545  A
O1522      C1543   1.292       .  A
O1522     Eu1532   2.454   1_554  S
O1523      C1544   1.282       .  A
O1523     Eu1533   2.405       .  S
O1524      C1539   1.292       .  A
O1524     Eu2142   2.458   1_545  S
O1525     Eu2143   2.395   1_545  S
O1526      C1541   1.292       .  A
O1526     Eu1531   2.454   1_554  S
O1527     Eu1530   2.410       .  S
O1528      C1537   1.283       .  A
O1528     Eu1534   2.408       .  S
O1529      C1538   1.293       .  A
Eu1530     O2126   2.503       .  S
Eu1530     O2136   2.457       .  S
Eu1530     O1548   2.355       .  S
Eu1530     O2148   2.336       .  S
Eu1531     O2127   2.489       .  S
Eu1531     O2137   2.394       .  S
Eu1531     O1535   2.347   1_556  S
Eu1532     O2117   2.348   1_545  S
Eu1532     O2123   2.370   1_546  S
Eu1532     O1546   2.335   1_556  S
Eu1532     O1536   2.347   1_556  S
Eu1533     O1535   2.363       .  S
Eu1534     O1546   2.358       .  S
Eu1534     O2160   2.356   1_545  S
Eu1534     O1536   2.361       .  S
O1536     Eu2142   2.336   1_545  S
C1544      O2133   1.301       .  A
H1545      O1546   0.964       .  S
H1547      O1548   0.965       .  S
O1548     Eu2146   2.355       .  S
O1549      C1560   1.301       .  A
O1549     Eu1585   2.509       .  S
O1550      C1561   1.295       .  A
O1550     Eu1584   2.489       .  S
O1551      C1562   1.293       .  A
O1551     Eu1557   2.476       .  S
O1552      C1563   1.301       .  A
O1552     Eu1557   2.509       .  S
O1553      C1563   1.283       .  A
O1553     Eu1587   2.412       .  S
O1554      C1562   1.292       .  A
O1554     Eu1586   2.455       .  S
O1555      C1561   1.294       .  A
O1555     Eu1557   2.466       .  S
O1556      C1560   1.283       .  A
O1556     Eu1557   2.411       .  S
Eu1557     O1567   2.358       .  S
Eu1557     O1559   2.362       .  S
Eu1557     O1558   2.336       .  S
Eu1557     O1565   2.357       .  S
O1558     Eu1587   2.360       .  S
O1558     Eu1584   2.349       .  S
O1559     Eu1585   2.336       .  S
O1559     Eu1586   2.348       .  S
H1564      O1565   0.964       .  S
O1565     Eu1586   2.336       .  S
O1565     Eu1584   2.369       .  S
H1566      O1567   0.965       .  S
O1567     Eu1585   2.358       .  S
O1567     Eu1587   2.357       .  S
O1568      C1591   1.303       .  A
O1568     Eu1584   2.522       .  S
O1569      C1592   1.293       .  A
O1569     Eu1585   2.475       .  S
O1570      C1593   1.303       .  A
O1570     Eu1586   2.521       .  S
O1571      C1594   1.293       .  A
O1571     Eu1587   2.476       .  S
O1572      C1595   1.300       .  A
O1572     Eu1587   2.506       .  S
O1573      C1596   1.295       .  A
O1573     Eu1586   2.490       .  S
O1574      C1597   1.304       .  A
O1574     Eu1588   2.525       .  S
O1575      C1598   1.295       .  A
O1575     Eu1588   2.491       .  S
O1576      C1597   1.280       .  A
O1576     Eu1586   2.397       .  S
O1577      C1598   1.293       .  A
O1577     Eu1587   2.461       .  S
O1578      C1593   1.281       .  A
O1578     Eu1584   2.400       .  S
O1579      C1596   1.293       .  A
O1579     Eu1585   2.464       .  S
O1580      C1595   1.283       .  A
O1580     Eu1585   2.413       .  S
O1581      C1594   1.293       .  A
O1581     Eu1584   2.458       .  S
O1582      C1591   1.281       .  A
O1582     Eu1588   2.397       .  S
O1583      C1592   1.293       .  A
O1583     Eu1588   2.458       .  S
Eu1584     O1602   2.334       .  S
Eu1584     O1590   2.351       .  S
Eu1585     O1589   2.362       .  S
Eu1585     O1600   2.359       .  S
Eu1586     O1600   2.369       .  S
Eu1586     O1590   2.350       .  S
Eu1587     O1589   2.338       .  S
Eu1587     O1602   2.358       .  S
Eu1588     O1589   2.349       .  S
Eu1588     O1600   2.334       .  S
Eu1588     O1602   2.370       .  S
Eu1588     O1590   2.351       .  S
C1598      C1891   1.480   1_545  S
H1599      O1600   0.964       .  S
H1601      O1602   0.964       .  S
O1603      C1614   1.292       .  A
O1603     Eu1639   2.476       .  S
O1604      C1615   1.303       .  A
O1604     Eu1638   2.520       .  S
O1605      C1616   1.295       .  A
O1605     Eu1611   2.487       .  S
O1606      C1617   1.303       .  A
O1606     Eu1611   2.522       .  S
O1607      C1617   1.281       .  A
O1607     Eu1641   2.396       .  S
O1608      C1616   1.293       .  A
O1608     Eu1640   2.461       .  S
O1609      C1615   1.281       .  A
O1609     Eu1611   2.400       .  S
O1610      C1614   1.293       .  A
O1610     Eu1611   2.462       .  S
Eu1611     O1621   2.333       .  S
Eu1611     O1613   2.348       .  S
Eu1611     O1612   2.351       .  S
Eu1611     O1619   2.369       .  S
O1612     Eu1641   2.349       .  S
O1612     Eu1638   2.349       .  S
O1613     Eu1639   2.361       .  S
O1613     Eu1640   2.336       .  S
H1618      O1619   0.964       .  S
O1619     Eu1640   2.357       .  S
O1619     Eu1638   2.335       .  S
H1620      O1621   0.964       .  S
O1621     Eu1639   2.358       .  S
O1621     Eu1641   2.370       .  S
O1622      C1645   1.295       .  A
O1622     Eu1638   2.489       .  S
O1623      C1646   1.301       .  A
O1623     Eu1639   2.507       .  S
O1624      C1647   1.293       .  A
O1624     Eu1640   2.478       .  S
O1625      C1648   1.304       .  A
O1625     Eu1641   2.525       .  S
O1626      C1649   1.296       .  A
O1626     Eu1641   2.491       .  S
O1627      C1650   1.301       .  A
O1627     Eu1640   2.511       .  S
O1628      C1651   1.301       .  A
O1628     Eu1642   2.506       .  S
O1629      C1652   1.292       .  A
O1629     Eu1642   2.474       .  S
O1630      C1651   1.282       .  A
O1630     Eu1640   2.408       .  S
O1631      C1652   1.292       .  A
O1631     Eu1641   2.457       .  S
O1632      C1647   1.291       .  A
O1632     Eu1638   2.451       .  S
O1633      C1650   1.282       .  A
O1633     Eu1639   2.408       .  S
O1634      C1649   1.292       .  A
O1634     Eu1639   2.457       .  S
O1635      C1648   1.280       .  A
O1635     Eu1638   2.396       .  S
O1636      C1645   1.294       .  A
O1636     Eu1642   2.465       .  S
O1637      C1646   1.283       .  A
O1637     Eu1642   2.409       .  S
Eu1638     O1656   2.369       .  S
Eu1638     O1644   2.349       .  S
Eu1639     O1643   2.336       .  S
Eu1639     O1654   2.356       .  S
Eu1640     O1654   2.356       .  S
Eu1640     O1644   2.362       .  S
Eu1641     O1643   2.347       .  S
Eu1641     O1656   2.335       .  S
Eu1642     O1643   2.361       .  S
Eu1642     O1654   2.358       .  S
Eu1642     O1656   2.357       .  S
Eu1642     O1644   2.335       .  S
H1653      O1654   0.965       .  S
H1655      O1656   0.964       .  S
O1657      C1668   1.301       .  A
O1657     Eu1693   2.507       .  S
O1658      C1669   1.294       .  A
O1658     Eu1692   2.486       .  S
O1659      C1670   1.293       .  A
O1659     Eu1665   2.478       .  S
O1660      C1671   1.302       .  A
O1660     Eu1665   2.512       .  S
O1661      C1671   1.282       .  A
O1661     Eu1695   2.408       .  S
O1662      C1670   1.291       .  A
O1662     Eu1694   2.453       .  S
O1663      C1669   1.294       .  A
O1663     Eu1665   2.465       .  S
O1664      C1668   1.282       .  A
O1664     Eu1665   2.405       .  S
Eu1665     O1675   2.357       .  S
Eu1665     O1667   2.363       .  S
Eu1665     O1666   2.335       .  S
Eu1665     O1673   2.356       .  S
O1666     Eu1695   2.361       .  S
O1666     Eu1692   2.348       .  S
O1667     Eu1693   2.336       .  S
O1667     Eu1694   2.348       .  S
H1672      O1673   0.964       .  S
O1673     Eu1694   2.336       .  S
O1673     Eu1692   2.369       .  S
H1674      O1675   0.965       .  S
O1675     Eu1693   2.357       .  S
O1675     Eu1695   2.356       .  S
O1676      C1699   1.303       .  A
O1676     Eu1692   2.520       .  S
O1677      C1700   1.293       .  A
O1677     Eu1693   2.476       .  S
O1678      C1701   1.303       .  A
O1678     Eu1694   2.521       .  S
O1679      C1702   1.293       .  A
O1679     Eu1695   2.477       .  S
O1680      C1703   1.300       .  A
O1680     Eu1695   2.506       .  S
O1681      C1704   1.295       .  A
O1681     Eu1694   2.488       .  S
O1682      C1705   1.304       .  A
O1682     Eu1696   2.526       .  S
O1683      C1706   1.295       .  A
O1683     Eu1696   2.491       .  S
O1684      C1705   1.280       .  A
O1684     Eu1694   2.397       .  S
O1685      C1706   1.293       .  A
O1685     Eu1695   2.460       .  S
O1686      C1701   1.281       .  A
O1686     Eu1692   2.400       .  S
O1687      C1704   1.293       .  A
O1687     Eu1693   2.463       .  S
O1688      C1703   1.283       .  A
O1688     Eu1693   2.411       .  S
O1689      C1702   1.293       .  A
O1689     Eu1692   2.458       .  S
O1690      C1699   1.281       .  A
O1690     Eu1696   2.397       .  S
O1691      C1700   1.293       .  A
O1691     Eu1696   2.459       .  S
Eu1692     O1710   2.334       .  S
Eu1692     O1698   2.350       .  S
Eu1693     O1697   2.361       .  S
Eu1693     O1708   2.358       .  S
Eu1694     O1708   2.370       .  S
Eu1694     O1698   2.349       .  S
Eu1695     O1697   2.337       .  S
Eu1695     O1710   2.357       .  S
Eu1696     O1697   2.349       .  S
Eu1696     O1708   2.335       .  S
Eu1696     O1710   2.370       .  S
Eu1696     O1698   2.350       .  S
C1706      C1903   1.480       .  S
H1707      O1708   0.964       .  S
H1709      O1710   0.964       .  S
O1711     Eu2359   2.525   1_545  S
O1712      C1723   1.292       .  A
O1712     Eu1746   2.474   1_545  S
O1713      C2336   1.302   1_545  A
O1713     Eu1719   2.517       .  S
O1714      C1725   1.295       .  A
O1714     Eu1719   2.486       .  S
O1715      C1725   1.294       .  A
O1715     Eu1749   2.465       .  S
O1716      C1724   1.281       .  A
O1716     Eu1748   2.400       .  S
O1717      C1723   1.292       .  A
O1717     Eu1719   2.458       .  S
O1718      C1722   1.281       .  A
O1718     Eu1719   2.401       .  S
Eu1719     O1729   2.368       .  S
Eu1719     O2333   2.351   1_545  S
Eu1719     O1720   2.348       .  S
Eu1719     O2339   2.335   1_545  S
O1720     Eu1749   2.336       .  S
O1720     Eu1746   2.361   1_545  S
O1721     Eu2331   2.351       .  S
O1721     Eu1748   2.351       .  S
C1724      O2325   1.302       .  A
H1726      O2339   0.964       .  S
O1727     Eu2331   2.335       .  S
O1727     Eu1748   2.369       .  S
O1727     Eu2358   2.358       .  S
O1727      H2338   0.964       .  S
H1728      O1729   0.964       .  S
O1729     Eu1749   2.358       .  S
O1730      C1753   1.300       .  A
O1730     Eu2358   2.505       .  S
O1731      C1754   1.295       .  A
O1731     Eu1747   2.491       .  S
O1732      C1755   1.295       .  A
O1732     Eu1748   2.489       .  S
O1733      C1756   1.301       .  A
O1733     Eu1749   2.512       .  S
O1734      C1757   1.293       .  A
O1735      C1758   1.304       .  A
O1736      C1759   1.292       .  A
O1736     Eu1750   2.474       .  S
O1737      C1760   1.301       .  A
O1737     Eu1750   2.509       .  S
O1738      C1759   1.293       .  A
O1739      C2372   1.283   1_545  A
O1740      C1755   1.293       .  A
O1740     Eu2358   2.461       .  S
O1741      C1758   1.280       .  A
O1741     Eu1747   2.395       .  S
O1742      C1757   1.292       .  A
O1742     Eu2359   2.456   1_545  S
O1743      C1756   1.283       .  A
O1743     Eu1746   2.412   1_545  S
O1744     Eu1750   2.412       .  S
O1745      C1754   1.293       .  A
O1745     Eu1750   2.462       .  S
Eu1746     O2342   2.505       .  S
Eu1746     O2352   2.461       .  S
Eu1746     O2339   2.358       .  S
Eu1746     O2376   2.357       .  S
Eu1746     O2364   2.335       .  S
Eu1747     O2323   2.525       .  S
Eu1747     O2354   2.456       .  S
Eu1747     O1751   2.349       .  S
Eu1747     O1762   2.370       .  S
Eu1748     O1752   2.348       .  S
Eu1749     O2376   2.357   1_545  S
Eu1750     O1751   2.336       .  S
Eu1750     O1762   2.359       .  S
O1752     Eu2358   2.335       .  S
C1760      C1991   1.470       .  S
C1760      O2351   1.283       .  A
H1761      O1762   0.964       .  S
H1763      O1764   0.965       .  S
O1764     Eu2358   2.357       .  S
O1764     Eu2361   2.357       .  S
C1765      C1766   1.341       .  D
C1765      H1767   1.087       .  S
C1766      H1768   1.087       .  S
C1770      H1772   1.087       .  S
C1773      C1774   1.340       .  D
C1773      H1775   1.087       .  S
C1774      H1776   1.087       .  S
C1777      C2007   1.464       .  S
C1777      C1778   1.341       .  D
C1777      H1779   1.087       .  S
C1778      H1780   1.087       .  S
C1781      C1782   1.341       .  D
C1781      H1783   1.087       .  S
C1782      H1784   1.087       .  S
C1785      C1786   1.341       .  D
C1785      H1787   1.087       .  S
C1786      H1788   1.087       .  S
C1789      C1790   1.341       .  D
C1789      H1791   1.087       .  S
C1790      H1792   1.087       .  S
C1793      C1794   1.341       .  D
C1793      H1795   1.087       .  S
C1794      H1796   1.087       .  S
C1797      C2410   1.341       .  D
C1797      H1799   1.087       .  S
C1798      C2409   1.341       .  D
C1798      H1800   1.087       .  S
C1801      C1802   1.341       .  D
C1801      H1803   1.087       .  S
C1802      H1804   1.087       .  S
C1805      C1806   1.341       .  D
C1805      H1807   1.087       .  S
C1806      H1808   1.087       .  S
C1809      C1810   1.341       .  D
C1809      H1811   1.087       .  S
C1810      H1812   1.087       .  S
C1813      C1814   1.341       .  D
C1813      H1815   1.087       .  S
C1814      H1816   1.087       .  S
C1817      C1818   1.341       .  D
C1817      H1819   1.087       .  S
C1818      H1820   1.087       .  S
C1821      C1822   1.341       .  D
C1821      H1823   1.087       .  S
C1822      H1824   1.087       .  S
C1825      H1827   1.087       .  S
C1826      H1828   1.087       .  S
C1829      C1830   1.341       .  D
C1829      H1831   1.087       .  S
C1830      H1832   1.087       .  S
C1833      C1834   1.341       .  D
C1833      H1835   1.087       .  S
C1834      H1836   1.087       .  S
C1837      C2226   1.479       .  S
N1838      C1839   1.353       .  A
C1839      N1840   1.355       .  A
C1839      C2445   1.465       .  S
N1840      C1841   1.353       .  A
C1841      C2064   1.472       .  S
C1841      N1842   1.369       .  A
C1843      C2257   1.481       .  S
C1843      N1844   1.364       .  A
C1843      N1848   1.357       .  A
N1844      C1845   1.369       .  A
C1845      C2334   1.473       .  S
N1846      C1847   1.356       .  A
C1847      C2446   1.466       .  S
C1849      N1850   1.364       .  A
C1849      N1854   1.356       .  A
N1850      C1851   1.368       .  A
C1851      C2262   1.470       .  S
C1851      N1852   1.352       .  A
N1852      C1853   1.354       .  A
C1853      N1854   1.353       .  A
C1853      C2441   1.463       .  S
C1855      C2102   1.479       .  S
C1855      N1856   1.358       .  A
C1855      N1860   1.362       .  A
N1856      C1857   1.354       .  A
C1857      N1858   1.355       .  A
C1857      C2442   1.465       .  S
N1858      C1859   1.351       .  A
C1859      C2118   1.468       .  S
C1859      N1860   1.368       .  A
C1861      C2371   1.476       .  S
C1861      N1862   1.363       .  A
C1861      N1866   1.356       .  A
N1862      C1863   1.368       .  A
C1863      C2172   1.470       .  S
C1863      N1864   1.353       .  A
N1864      C1865   1.355       .  A
C1865      N1866   1.352       .  A
C1865      C2437   1.463   1_655  S
C1867      C2337   1.480       .  S
C1867      N1868   1.357       .  A
C1867      N1872   1.364       .  A
N1868      C1869   1.354       .  A
C1869      N1870   1.355       .  A
C1869      C2438   1.464       .  S
N1870      C1871   1.351       .  A
C1871      C2260   1.470       .  S
C1871      N1872   1.369       .  A
C1873      C2121   1.478       .  S
C1873      N1874   1.358       .  A
C1873      N1878   1.362   1_554  A
N1874      C1875   1.354       .  A
C1875      N1876   1.354   1_554  A
C1875      C2433   1.464       .  S
N1876      C1877   1.350       .  A
C1877      C2095   1.467       .  S
C1877      N1878   1.367       .  A
C1879      C2155   1.475       .  S
C1879      N1880   1.363       .  A
C1879      N1884   1.356       .  A
N1880      C1881   1.367       .  A
C1881      C2280   1.466       .  S
C1881      N1882   1.352       .  A
N1882      C1883   1.354       .  A
C1883      N1884   1.353       .  A
C1883      C2434   1.462       .  S
C1885      C2174   1.476       .  S
C1885      N1886   1.363       .  A
C1885      N1890   1.356   1_655  A
N1886      C1887   1.367   1_655  A
N1888      C1889   1.355       .  A
C1889      C2430   1.465       .  S
C1891      N1892   1.358       .  A
C1891      N1896   1.363       .  A
N1892      C1893   1.354       .  A
C1893      N1894   1.355       .  A
C1893      C2429   1.466       .  S
N1894      C1895   1.352       .  A
C1895      C2311   1.469       .  S
C1895      N1896   1.368       .  A
C1897      C2282   1.475       .  S
C1897      N1898   1.362       .  A
C1897      N1902   1.356       .  A
N1898      C1899   1.367       .  A
C1899      C2149   1.467       .  S
C1899      N1900   1.353       .  A
N1900      C1901   1.355       .  A
C1901      N1902   1.353       .  A
C1901      C2425   1.464       .  S
C1903      N1904   1.363       .  A
C1903      N1908   1.358       .  A
N1904      C1905   1.368       .  A
C1905      C2203   1.470       .  S
C1905      N1906   1.351       .  A
N1906      C1907   1.355       .  A
C1907      N1908   1.354       .  A
C1907      C2426   1.466       .  S
C1909      N1910   1.363       .  A
C1909      N1914   1.356       .  A
N1910      C1911   1.367       .  A
C1911      C2258   1.468       .  S
C1911      N1912   1.353       .  A
N1912      C1913   1.354       .  A
C1913      N1914   1.353       .  A
C1913      C2421   1.463       .  S
C1915      C2065   1.478       .  S
C1915      N1920   1.362       .  A
N1916      C1917   1.354       .  A
C1917      N1918   1.355       .  A
C1917      C2422   1.465       .  S
C1919      N1920   1.368       .  A
C1921      C2228   1.479       .  S
C1921      N1922   1.363       .  A
C1921      N1926   1.357       .  A
N1922      C1923   1.368       .  A
C1923      C2370   1.469       .  S
C1923      N1924   1.350       .  A
N1924      C1925   1.355       .  A
C1925      N1926   1.354       .  A
C1925      C2417   1.463       .  S
C1927      N1928   1.356       .  A
C1927      N1932   1.363       .  A
N1928      C1929   1.353       .  A
C1929      N1930   1.354       .  A
C1929      C2418   1.462       .  S
N1930      C1931   1.352       .  A
C1931      C2099   1.467       .  S
C1931      N1932   1.368       .  A
C1933      C2335   1.477       .  S
C1933      N1934   1.356       .  A
C1933      N1938   1.364       .  A
N1934      C1935   1.353       .  A
C1935      N1936   1.355       .  A
C1935      C2413   1.465       .  S
N1936      C1937   1.353       .  A
C1937      C2175   1.471       .  S
C1937      N1938   1.368       .  A
C1939      C2366   1.480       .  S
C1939      N1940   1.363       .  A
C1939      N1944   1.358       .  A
N1940      C1941   1.368       .  A
C1941      C2227   1.470       .  S
C1941      N1942   1.352       .  A
N1942      C1943   1.356       .  A
C1943      N1944   1.354       .  A
C1943      C2414   1.466       .  S
C1945      C2151   1.478       .  S
C1945      N1946   1.362   1_554  A
C1945      N1950   1.358       .  A
N1946      C1947   1.367       .  A
C1947      C2097   1.468       .  S
C1947      N1948   1.351       .  A
N1948      C1949   1.355   1_556  A
C1949      N1950   1.354       .  A
C1949      C2409   1.465       .  S
C1951      C2153   1.476       .  S
C1951      N1952   1.363       .  A
C1951      N1956   1.356       .  A
N1952      C1953   1.367       .  A
C1953      C2315   1.469       .  S
C1953      N1954   1.353       .  A
N1954      C1955   1.355       .  A
C1955      N1956   1.353       .  A
C1955      C2410   1.464       .  S
C1957      C2206   1.478       .  S
C1957      N1958   1.356       .  A
C1957      N1962   1.364       .  A
N1958      C1959   1.353       .  A
C1959      N1960   1.355       .  A
C1959      C2406   1.465       .  S
N1960      C1961   1.353       .  A
C1961      C2368   1.471       .  S
C1961      N1962   1.368       .  A
C1963      N1964   1.357       .  A
C1963      N1968   1.363       .  A
N1964      C1965   1.354       .  A
C1965      N1966   1.356       .  A
C1965      C2405   1.466       .  S
N1966      C1967   1.352       .  A
C1967      C2313   1.471       .  S
C1967      N1968   1.369       .  A
C1969      N1970   1.364       .  A
C1969      N1974   1.357       .  A
N1970      C1971   1.369       .  A
C1971      C2209   1.471       .  S
C1971      N1972   1.351       .  A
N1972      C1973   1.355       .  A
C1973      N1974   1.354       .  A
C1973      C2401   1.464       .  S
C1975      C2312   1.477       .  S
C1975      N1976   1.356       .  A
C1975      N1980   1.363       .  A
C1977      N1978   1.354       .  A
C1977      C2402   1.463       .  S
C1979      C2156   1.469       .  S
C1979      N1980   1.368       .  A
C1981      C2173   1.482       .  S
C1981      N1982   1.358       .  A
C1981      N1986   1.364       .  A
N1982      C1983   1.355       .  A
C1983      N1984   1.355       .  A
C1983      C2398   1.465       .  S
N1984      C1985   1.351       .  A
C1985      C2317   1.471       .  S
C1985      N1986   1.369       .  A
C1987      C2204   1.477       .  S
C1987      N1992   1.363       .  A
N1988      C1989   1.353       .  A
C1989      N1990   1.355       .  A
C1989      C2397   1.464       .  S
C1991      N1992   1.368       .  A
C1993      C2259   1.476       .  S
C1993      N1994   1.362       .  A
C1993      N1998   1.357       .  A
N1994      C1995   1.366       .  A
C1995      C2067   1.467       .  S
C1995      N1996   1.353       .  A
N1996      C1997   1.355       .  A
C1997      N1998   1.353       .  A
C1997      C2393   1.465       .  S
C1999      C2261   1.478       .  S
C1999      N2000   1.362       .  A
C1999      N2004   1.358       .  A
N2000      C2001   1.367       .  A
C2001      C2336   1.469       .  S
N2002      C2003   1.355       .  A
C2003      C2394   1.466       .  S
C2005      C2369   1.477       .  S
C2005      N2006   1.357       .  A
C2005      N2010   1.363       .  A
N2006      C2007   1.353       .  A
C2007      N2008   1.355       .  A
N2008      C2009   1.353       .  A
C2009      C2207   1.469       .  S
C2009      N2010   1.367       .  A
C2011      C2367   1.479       .  S
C2011      N2012   1.358       .  A
C2011      N2016   1.363       .  A
N2012      C2013   1.354       .  A
C2013      N2014   1.355       .  A
C2013      C2390   1.466       .  S
N2014      C2015   1.351       .  A
C2015      C2229   1.469       .  S
C2015      N2016   1.368       .  A
C2017      C2316   1.479       .  S
C2017      N2018   1.357       .  A
C2017      N2022   1.363       .  A
N2018      C2019   1.354       .  A
C2019      N2020   1.356       .  A
C2019      C2385   1.466       .  S
N2020      C2021   1.352       .  A
C2021      C2205   1.471       .  S
C2021      N2022   1.368       .  A
C2023      C2314   1.478       .  S
C2023      N2024   1.364       .  A
C2023      N2028   1.356       .  A
N2024      C2025   1.368       .  A
N2026      C2027   1.355       .  A
C2027      C2386   1.465       .  S
C2029      C2150   1.480       .  S
C2029      N2030   1.363   1_554  A
C2029      N2034   1.357       .  A
N2030      C2031   1.368       .  A
C2031      C2101   1.469       .  S
C2031      N2032   1.351       .  A
N2032      C2033   1.355   1_556  A
C2033      N2034   1.354       .  A
C2033      C2381   1.464   1_655  S
C2035      C2119   1.478       .  S
C2035      N2036   1.364       .  A
C2035      N2040   1.356       .  A
N2036      C2037   1.368       .  A
C2037      C2283   1.470       .  S
C2037      N2038   1.352       .  A
N2038      C2039   1.354       .  A
C2039      N2040   1.353       .  A
C2039      C2382   1.463       .  S
C2041      C2098   1.475       .  S
C2041      N2042   1.356       .  A
C2041      N2046   1.363       .  A
N2042      C2043   1.353       .  A
C2043      N2044   1.354       .  A
C2043      C2377   1.463       .  S
N2044      C2045   1.352       .  A
C2045      C2263   1.467       .  S
C2045      N2046   1.367       .  A
C2047      C2100   1.480       .  S
C2047      N2048   1.363       .  A
C2047      N2052   1.358   1_655  A
N2048      C2049   1.368   1_655  A
N2050      C2051   1.355       .  A
C2051      C2378   1.465       .  S
O2053      C2064   1.302       .  A
O2053     Eu2089   2.513       .  S
O2054      C2065   1.295       .  A
O2054     Eu2088   2.490       .  S
O2055      C2066   1.292       .  A
O2055     Eu2061   2.474       .  S
O2056      C2067   1.300       .  A
O2056     Eu2061   2.504       .  S
O2057      C2067   1.283       .  A
O2057     Eu2091   2.410       .  S
O2058      C2066   1.293       .  A
O2058     Eu2090   2.458       .  S
O2059      C2065   1.292       .  A
O2059     Eu2061   2.457       .  S
O2060      C2064   1.283       .  A
O2060     Eu2061   2.410       .  S
Eu2061     O2071   2.355       .  S
Eu2061     O2063   2.360       .  S
Eu2061     O2062   2.337       .  S
Eu2061     O2069   2.358       .  S
O2062     Eu2091   2.361       .  S
O2062     Eu2088   2.348       .  S
O2063     Eu2089   2.333       .  S
O2063     Eu2090   2.347       .  S
H2068      O2069   0.964       .  S
O2069     Eu2090   2.334       .  S
O2069     Eu2088   2.369       .  S
H2070      O2071   0.965       .  S
O2071     Eu2089   2.355       .  S
O2071     Eu2091   2.356       .  S
O2072      C2095   1.303       .  A
O2072     Eu2088   2.522       .  S
O2073      C2096   1.292       .  A
O2073     Eu2089   2.474       .  S
O2074      C2097   1.303       .  A
O2074     Eu2090   2.519       .  S
O2075      C2098   1.292       .  A
O2075     Eu2091   2.474       .  S
O2076      C2099   1.301       .  A
O2076     Eu2091   2.509       .  S
O2077      C2100   1.295       .  A
O2077     Eu2090   2.488       .  S
O2078      C2101   1.304       .  A
O2078     Eu2092   2.522       .  S
O2079      C2102   1.295       .  A
O2079     Eu2092   2.491       .  S
O2080      C2101   1.280       .  A
O2080     Eu2090   2.396       .  S
O2081      C2102   1.292       .  A
O2081     Eu2091   2.459       .  S
O2082      C2097   1.280       .  A
O2082     Eu2088   2.395       .  S
O2083      C2100   1.293       .  A
O2083     Eu2089   2.461       .  S
O2084      C2099   1.282       .  A
O2084     Eu2089   2.403       .  S
O2085      C2098   1.292       .  A
O2085     Eu2088   2.456       .  S
O2086      C2095   1.280       .  A
O2086     Eu2092   2.393       .  S
O2087      C2096   1.292       .  A
O2087     Eu2092   2.455       .  S
Eu2088     O2106   2.334       .  S
Eu2088     O2094   2.349       .  S
Eu2089     O2093   2.362       .  S
Eu2089     O2104   2.358       .  S
Eu2090     O2104   2.369       .  S
Eu2090     O2094   2.350       .  S
Eu2091     O2093   2.334       .  S
Eu2091     O2106   2.358       .  S
Eu2092     O2093   2.346       .  S
Eu2092     O2104   2.336       .  S
Eu2092     O2106   2.369       .  S
Eu2092     O2094   2.349       .  S
H2103      O2104   0.964       .  S
H2105      O2106   0.964       .  S
O2107      C2118   1.303       .  A
O2107     Eu2143   2.518       .  S
O2108      C2119   1.292       .  A
O2108     Eu2142   2.474       .  S
O2109      C2120   1.303       .  A
O2109     Eu2115   2.520       .  S
O2110      C2121   1.295   1_556  A
O2111      C2121   1.292       .  A
O2111     Eu2145   2.458       .  S
O2112     Eu2144   2.395       .  S
O2113      C2119   1.293       .  A
O2113     Eu2115   2.460   1_554  S
O2114      C2118   1.281       .  A
Eu2115     O2117   2.350       .  S
Eu2115     O2123   2.333   1_556  S
O2116     Eu2145   2.335   1_455  S
H2122      O2123   0.964       .  S
O2123     Eu2142   2.357       .  S
H2124      O2125   0.964       .  S
O2125     Eu2143   2.336   1_554  S
O2125     Eu2145   2.357       .  S
O2126      C2149   1.300       .  A
O2127      C2150   1.295   1_556  A
O2128      C2151   1.295   1_556  A
O2128     Eu2144   2.490       .  S
O2129      C2152   1.301   1_655  A
O2129     Eu2145   2.511       .  S
O2130      C2153   1.293       .  A
O2130     Eu2145   2.476       .  S
O2131      C2154   1.304       .  A
O2131     Eu2144   2.524       .  S
O2132      C2155   1.293       .  A
O2132     Eu2146   2.474       .  S
O2134      C2155   1.292       .  A
O2134     Eu2144   2.454   1_554  S
O2135      C2156   1.282       .  A
O2135     Eu2145   2.405       .  S
O2136      C2151   1.292       .  A
O2138      C2153   1.292       .  A
O2138     Eu2143   2.454   1_554  S
O2139     Eu2142   2.410       .  S
O2140      C2149   1.283       .  A
O2140     Eu2146   2.408       .  S
O2141      C2150   1.293       .  A
Eu2142     O2160   2.355       .  S
Eu2143     O2147   2.348   1_556  S
Eu2144     O2158   2.335   1_556  S
Eu2144     O2148   2.347   1_556  S
Eu2145     O2147   2.363       .  S
Eu2146     O2158   2.358       .  S
Eu2146     O2148   2.361       .  S
H2157      O2158   0.964       .  S
H2159      O2160   0.965       .  S
O2161      C2172   1.301       .  A
O2161     Eu2197   2.509       .  S
O2162      C2173   1.295       .  A
O2162     Eu2196   2.488       .  S
O2163      C2174   1.293       .  A
O2163     Eu2169   2.476       .  S
O2164      C2175   1.301       .  A
O2164     Eu2169   2.509       .  S
O2165      C2175   1.283       .  A
O2165     Eu2199   2.412       .  S
O2166      C2174   1.292       .  A
O2166     Eu2198   2.455       .  S
O2167      C2173   1.294       .  A
O2167     Eu2169   2.467       .  S
O2168      C2172   1.283       .  A
O2168     Eu2169   2.411       .  S
Eu2169     O2179   2.358       .  S
Eu2169     O2171   2.362       .  S
Eu2169     O2170   2.336       .  S
Eu2169     O2177   2.357       .  S
O2170     Eu2199   2.360       .  S
O2170     Eu2196   2.349       .  S
O2171     Eu2197   2.336       .  S
O2171     Eu2198   2.348       .  S
H2176      O2177   0.964       .  S
O2177     Eu2198   2.336       .  S
O2177     Eu2196   2.369       .  S
H2178      O2179   0.965       .  S
O2179     Eu2197   2.358       .  S
O2179     Eu2199   2.358       .  S
O2180      C2203   1.304       .  A
O2180     Eu2196   2.522       .  S
O2181      C2204   1.293       .  A
O2181     Eu2197   2.475       .  S
O2182      C2205   1.303       .  A
O2182     Eu2198   2.521       .  S
O2183      C2206   1.293       .  A
O2183     Eu2199   2.476       .  S
O2184      C2207   1.300       .  A
O2184     Eu2199   2.506       .  S
O2185      C2208   1.295       .  A
O2185     Eu2198   2.490       .  S
O2186      C2209   1.304       .  A
O2186     Eu2200   2.525       .  S
O2187      C2210   1.295       .  A
O2187     Eu2200   2.491       .  S
O2188      C2209   1.281       .  A
O2188     Eu2198   2.397       .  S
O2189      C2210   1.293       .  A
O2189     Eu2199   2.461       .  S
O2190      C2205   1.281       .  A
O2190     Eu2196   2.399       .  S
O2191      C2208   1.293       .  A
O2191     Eu2197   2.464       .  S
O2192      C2207   1.283       .  A
O2192     Eu2197   2.413       .  S
O2193      C2206   1.293       .  A
O2193     Eu2196   2.458       .  S
O2194      C2203   1.281       .  A
O2194     Eu2200   2.397       .  S
O2195      C2204   1.293       .  A
O2195     Eu2200   2.458       .  S
Eu2196     O2214   2.334       .  S
Eu2196     O2202   2.351       .  S
Eu2197     O2201   2.362       .  S
Eu2197     O2212   2.359       .  S
Eu2198     O2212   2.369       .  S
Eu2198     O2202   2.350       .  S
Eu2199     O2201   2.338       .  S
Eu2199     O2214   2.358       .  S
Eu2200     O2201   2.349       .  S
Eu2200     O2212   2.334       .  S
Eu2200     O2214   2.370       .  S
Eu2200     O2202   2.350       .  S
H2211      O2212   0.964       .  S
H2213      O2214   0.964       .  S
O2215      C2226   1.292       .  A
O2215     Eu2251   2.476       .  S
O2216      C2227   1.303       .  A
O2216     Eu2250   2.520       .  S
O2217      C2228   1.295       .  A
O2217     Eu2223   2.487       .  S
O2218      C2229   1.303       .  A
O2218     Eu2223   2.522       .  S
O2219      C2229   1.281       .  A
O2219     Eu2253   2.396       .  S
O2220      C2228   1.293       .  A
O2220     Eu2252   2.461       .  S
O2221      C2227   1.281       .  A
O2221     Eu2223   2.400       .  S
O2222      C2226   1.293       .  A
O2222     Eu2223   2.462       .  S
Eu2223     O2233   2.333       .  S
Eu2223     O2225   2.348       .  S
Eu2223     O2224   2.351       .  S
Eu2223     O2231   2.369       .  S
O2224     Eu2253   2.349       .  S
O2224     Eu2250   2.349       .  S
O2225     Eu2251   2.360       .  S
O2225     Eu2252   2.336       .  S
H2230      O2231   0.964       .  S
O2231     Eu2252   2.357       .  S
O2231     Eu2250   2.336       .  S
H2232      O2233   0.964       .  S
O2233     Eu2251   2.358       .  S
O2233     Eu2253   2.370       .  S
O2234      C2257   1.295       .  A
O2234     Eu2250   2.489       .  S
O2235      C2258   1.301       .  A
O2235     Eu2251   2.507       .  S
O2236      C2259   1.293       .  A
O2236     Eu2252   2.478       .  S
O2237      C2260   1.304       .  A
O2237     Eu2253   2.525       .  S
O2238      C2261   1.296       .  A
O2238     Eu2253   2.491       .  S
O2239      C2262   1.301       .  A
O2239     Eu2252   2.511       .  S
O2240      C2263   1.301       .  A
O2240     Eu2254   2.506       .  S
O2241      C2264   1.292       .  A
O2241     Eu2254   2.474       .  S
O2242      C2263   1.282       .  A
O2242     Eu2252   2.407       .  S
O2243      C2264   1.292       .  A
O2243     Eu2253   2.457       .  S
O2244      C2259   1.291       .  A
O2244     Eu2250   2.451       .  S
O2245      C2262   1.282       .  A
O2245     Eu2251   2.408       .  S
O2246      C2261   1.292       .  A
O2246     Eu2251   2.456       .  S
O2247      C2260   1.280       .  A
O2247     Eu2250   2.396       .  S
O2248      C2257   1.294       .  A
O2248     Eu2254   2.465       .  S
O2249      C2258   1.283       .  A
O2249     Eu2254   2.409       .  S
Eu2250     O2268   2.368       .  S
Eu2250     O2256   2.349       .  S
Eu2251     O2255   2.336       .  S
Eu2251     O2266   2.356       .  S
Eu2252     O2266   2.356       .  S
Eu2252     O2256   2.362       .  S
Eu2253     O2255   2.347       .  S
Eu2253     O2268   2.335       .  S
Eu2254     O2255   2.361       .  S
Eu2254     O2266   2.358       .  S
Eu2254     O2268   2.357       .  S
Eu2254     O2256   2.335       .  S
H2265      O2266   0.965       .  S
H2267      O2268   0.964       .  S
O2269      C2280   1.301       .  A
O2269     Eu2305   2.507       .  S
O2270      C2281   1.294       .  A
O2270     Eu2304   2.486       .  S
O2271      C2282   1.293       .  A
O2271     Eu2277   2.477       .  S
O2272      C2283   1.302       .  A
O2272     Eu2277   2.512       .  S
O2273      C2283   1.282       .  A
O2273     Eu2307   2.408       .  S
O2274      C2282   1.292       .  A
O2274     Eu2306   2.453       .  S
O2275      C2281   1.294       .  A
O2275     Eu2277   2.465       .  S
O2276      C2280   1.282       .  A
O2276     Eu2277   2.405       .  S
Eu2277     O2287   2.357       .  S
Eu2277     O2279   2.363       .  S
Eu2277     O2278   2.335       .  S
Eu2277     O2285   2.357       .  S
O2278     Eu2307   2.361       .  S
O2278     Eu2304   2.348       .  S
O2279     Eu2305   2.336       .  S
O2279     Eu2306   2.348       .  S
H2284      O2285   0.964       .  S
O2285     Eu2306   2.336       .  S
O2285     Eu2304   2.369       .  S
H2286      O2287   0.965       .  S
O2287     Eu2305   2.357       .  S
O2287     Eu2307   2.356       .  S
O2288      C2311   1.303       .  A
O2288     Eu2304   2.520       .  S
O2289      C2312   1.293       .  A
O2289     Eu2305   2.476       .  S
O2290      C2313   1.303       .  A
O2290     Eu2306   2.521       .  S
O2291      C2314   1.293       .  A
O2291     Eu2307   2.477       .  S
O2292      C2315   1.300       .  A
O2292     Eu2307   2.506       .  S
O2293      C2316   1.295       .  A
O2293     Eu2306   2.488       .  S
O2294      C2317   1.304       .  A
O2294     Eu2308   2.526       .  S
O2295      C2318   1.295       .  A
O2295     Eu2308   2.491       .  S
O2296      C2317   1.280       .  A
O2296     Eu2306   2.397       .  S
O2297      C2318   1.293       .  A
O2297     Eu2307   2.460       .  S
O2298      C2313   1.281       .  A
O2298     Eu2304   2.400       .  S
O2299      C2316   1.293       .  A
O2299     Eu2305   2.463       .  S
O2300      C2315   1.283       .  A
O2300     Eu2305   2.411       .  S
O2301      C2314   1.293       .  A
O2301     Eu2304   2.458       .  S
O2302      C2311   1.281       .  A
O2302     Eu2308   2.397       .  S
O2303      C2312   1.293       .  A
O2303     Eu2308   2.458       .  S
Eu2304     O2322   2.334       .  S
Eu2304     O2310   2.350       .  S
Eu2305     O2309   2.361       .  S
Eu2305     O2320   2.358       .  S
Eu2306     O2320   2.370       .  S
Eu2306     O2310   2.349       .  S
Eu2307     O2309   2.337       .  S
Eu2307     O2322   2.357       .  S
Eu2308     O2309   2.349       .  S
Eu2308     O2320   2.335       .  S
Eu2308     O2322   2.370       .  S
Eu2308     O2310   2.350       .  S
H2319      O2320   0.964       .  S
H2321      O2322   0.964       .  S
O2324      C2335   1.292       .  A
O2324     Eu2358   2.474       .  S
O2325     Eu2331   2.517       .  S
O2326      C2337   1.295       .  A
O2326     Eu2331   2.486       .  S
O2327      C2337   1.294       .  A
O2327     Eu2361   2.465       .  S
O2328      C2336   1.281       .  A
O2328     Eu2360   2.400       .  S
O2329      C2335   1.292       .  A
O2329     Eu2331   2.458       .  S
O2330      C2334   1.281       .  A
O2330     Eu2331   2.401       .  S
Eu2331     O2341   2.368       .  S
Eu2331     O2332   2.348       .  S
O2332     Eu2361   2.336       .  S
O2332     Eu2358   2.361       .  S
O2333     Eu2360   2.351       .  S
O2339     Eu2360   2.369       .  S
H2340      O2341   0.964       .  S
O2341     Eu2361   2.358       .  S
O2342      C2365   1.300       .  A
O2343      C2366   1.295       .  A
O2343     Eu2359   2.491       .  S
O2344      C2367   1.295       .  A
O2344     Eu2360   2.489       .  S
O2345      C2368   1.301       .  A
O2345     Eu2361   2.511       .  S
O2346      C2369   1.293       .  A
O2347      C2370   1.304       .  A
O2348      C2371   1.292       .  A
O2348     Eu2362   2.474       .  S
O2349      C2372   1.301       .  A
O2349     Eu2362   2.509       .  S
O2350      C2371   1.293       .  A
O2352      C2367   1.293       .  A
O2353      C2370   1.280       .  A
O2353     Eu2359   2.395       .  S
O2354      C2369   1.292       .  A
O2355      C2368   1.283       .  A
O2355     Eu2358   2.412       .  S
O2356     Eu2362   2.412       .  S
O2357      C2366   1.293       .  A
O2357     Eu2362   2.462       .  S
Eu2359     O2363   2.349       .  S
Eu2359     O2374   2.370       .  S
Eu2360     O2364   2.348       .  S
Eu2362     O2363   2.336       .  S
Eu2362     O2374   2.359       .  S
H2373      O2374   0.964       .  S
H2375      O2376   0.965       .  S
C2377      C2378   1.341       .  D
C2377      H2379   1.087       .  S
C2378      H2380   1.087       .  S
C2382      H2384   1.087       .  S
C2385      C2386   1.340       .  D
C2385      H2387   1.087       .  S
C2386      H2388   1.087       .  S
C2389      C2390   1.341       .  D
C2389      H2391   1.087       .  S
C2390      H2392   1.087       .  S
C2393      C2394   1.341       .  D
C2393      H2395   1.087       .  S
C2394      H2396   1.087       .  S
C2397      C2398   1.341       .  D
C2397      H2399   1.087       .  S
C2398      H2400   1.087       .  S
C2401      C2402   1.341       .  D
C2401      H2403   1.087       .  S
C2402      H2404   1.087       .  S
C2405      C2406   1.341       .  D
C2405      H2407   1.087       .  S
C2406      H2408   1.087       .  S
C2409      H2411   1.087       .  S
C2410      H2412   1.087       .  S
C2413      C2414   1.341       .  D
C2413      H2415   1.087       .  S
C2414      H2416   1.087       .  S
C2417      C2418   1.341       .  D
C2417      H2419   1.087       .  S
C2418      H2420   1.087       .  S
C2421      C2422   1.341       .  D
C2421      H2423   1.087       .  S
C2422      H2424   1.087       .  S
C2425      C2426   1.341       .  D
C2425      H2427   1.087       .  S
C2426      H2428   1.087       .  S
C2429      C2430   1.341       .  D
C2429      H2431   1.087       .  S
C2430      H2432   1.087       .  S
C2433      C2434   1.341       .  D
C2433      H2435   1.087       .  S
C2434      H2436   1.087       .  S
C2437      H2439   1.087       .  S
C2438      H2440   1.087       .  S
C2441      C2442   1.341       .  D
C2441      H2443   1.087       .  S
C2442      H2444   1.087       .  S
C2445      C2446   1.341       .  D
C2445      H2447   1.087       .  S
C2446      H2448   1.087       .  S
