geometry optimzed in LAMMPS
_audit_creation_date              2020-11-30 
_audit_creation_method            'lammps2cif' 
_symmetry_space_group_name_H-M    'P1' 
_symmetry_Int_Tables_number       1 
_symmetry_cell_setting            triclinic 
loop_ 
_symmetry_equiv_pos_as_xyz 
  x,y,z 
_cell_length_a                    38.707504950345204 
_cell_length_b                    38.65008821225133 
_cell_length_c                    48.68805604037831 
_cell_angle_alpha                 89.89620693089542 
_cell_angle_beta                  90.01031785049193 
_cell_angle_gamma                 120.16929248941464 
loop_ 
_atom_site_label 
_atom_site_type_symbol 
_atom_site_fract_x 
_atom_site_fract_y 
_atom_site_fract_z 
_atom_site_charge 
C1          C  0.30493584  0.49847042  0.71081912     0.02800
C2          C  0.33809197  0.01975205  0.69368271    -0.13350
C3          C  0.37293790  0.05176692  0.70399141     0.00300
C4          C  0.37404076  0.06678613  0.72990240    -0.11880
C5          C  0.34090534  0.04865726  0.74695020     0.02790
C6          C  0.30597074  0.01377793  0.73763063    -0.11300
H7          H  0.33923745  0.50841882  0.67355697     0.08380
H8          H  0.40182216  0.09201262  0.73714295     0.05910
H9          H  0.28062012  0.99827663  0.75126134     0.05760
C10         C  0.09823781  0.13686754  0.66358407     0.02800
C11         C  0.06200661  0.12249499  0.67763057    -0.13350
C12         C  0.02652619  0.09427695  0.66550464     0.00300
C13         C  0.02610195  0.07719348  0.64059003    -0.11880
C14         C  0.06134848  0.08824528  0.62669319     0.02790
C15         C  0.09789323  0.11927471  0.63777146    -0.11300
H16         H  0.06042044  0.13568277  0.69687946     0.08380
H17         H  0.99753645  0.05482899  0.63218519     0.05910
H18         H  0.12529948  0.13011143  0.62619584     0.05760
C19         C  0.29248206  0.47023157  0.83035597     0.02800
C20         C  0.27226114  0.45064943  0.80570044    -0.13350
C21         C  0.27666634  0.41886700  0.79471105     0.00300
C22         C  0.30005767  0.40678321  0.80870572    -0.11880
C23         C  0.32135752  0.42706027  0.83171087     0.02790
C24         C  0.31700194  0.45763540  0.84298047    -0.11300
H25         H  0.25466353  0.46085473  0.79478305     0.08380
H26         H  0.30358476  0.38239112  0.80102351     0.05910
H27         H  0.33511294  0.47315798  0.86070059     0.05760
C28         C  0.45481347  0.33435367  0.87481346     0.02800
C29         C  0.47188232  0.35234912  0.90059214    -0.13350
C30         C  0.46935768  0.38591896  0.91018890     0.00300
C31         C  0.45140307  0.40162079  0.89372841    -0.11880
C32         C  0.43216990  0.38248033  0.86981202     0.02790
C33         C  0.43505214  0.35036861  0.85972210    -0.11300
H34         H  0.48510079  0.33931546  0.91356691     0.08380
H35         H  0.44905328  0.42705222  0.90063952     0.05910
H36         H  0.41851153  0.33584769  0.84125154     0.05760
C37         C  0.45494121  0.30208048  0.49797928     0.02800
C38         C  0.47374734  0.28509956  0.51306363    -0.13350
C39         C  0.47856170  0.25472152  0.50187382     0.00300
C40         C  0.46223131  0.23826670  0.47670567    -0.11880
C41         C  0.44196898  0.25271606  0.46132878     0.02790
C42         C  0.43814190  0.28501228  0.47192990    -0.11300
H43         H  0.98844693  0.29790720  0.53240744     0.08380
H44         H  0.46660710  0.21449797  0.46881015     0.05910
H45         H  0.42404793  0.29776768  0.45957116     0.05760
C46         C  0.11825568  0.16719075  0.54230038     0.02800
C47         C  0.09699723  0.18190888  0.52760208    -0.13350
C48         C  0.09006397  0.21089018  0.53898067     0.00300
C49         C  0.10617424  0.22804076  0.56407253    -0.11880
C50         C  0.12886880  0.21608614  0.57900075     0.02790
C51         C  0.13483868  0.18506907  0.56822415    -0.11300
H52         H  0.08243489  0.16849741  0.50833779     0.08380
H53         H  0.10020502  0.25071116  0.57207509     0.05910
H54         H  0.15075272  0.17399934  0.58029978     0.05760
C55         C  0.43591297  0.30050579  0.99908599     0.02800
C56         C  0.39987859  0.28601023  0.01382574    -0.13350
C57         C  0.36375230  0.25703288  0.00255976     0.00300
C58         C  0.36261437  0.23957807  0.97760490    -0.11880
C59         C  0.39727692  0.25146646  0.96263465     0.02790
C60         C  0.43442795  0.28250384  0.97324742    -0.11300
H61         H  0.39882669  0.29967086  0.03298456     0.08380
H62         H  0.33385397  0.21690928  0.96964926     0.05910
H63         H  0.46137738  0.29352300  0.96109472     0.05760
C64         C  0.13704573  0.16673321  0.04290904     0.02800
C65         C  0.13762488  0.18391935  0.06895811    -0.13350
C66         C  0.17374286  0.21698412  0.07909840     0.00300
C67         C  0.20819096  0.23206595  0.06329040    -0.11880
C68         C  0.20793345  0.21538120  0.03818407     0.02790
C69         C  0.17259479  0.18436039  0.02739323    -0.11300
H70         H  0.11107398  0.17069157  0.08167367     0.08380
H71         H  0.23634561  0.25625781  0.07095505     0.05910
H72         H  0.17438523  0.17139943  0.00810734     0.05760
C73         C  0.47215444  0.33137555  0.37709254     0.02800
C74         C  0.50914610  0.34531035  0.36386232    -0.13350
C75         C  0.04420662  0.37512833  0.37560056     0.00300
C76         C  0.04343727  0.39389038  0.39948325    -0.11880
C77         C  0.50783006  0.38152430  0.41350727     0.02790
C78         C  0.47159342  0.34996181  0.40226578    -0.11300
H79         H  0.51166061  0.33090742  0.34550591     0.08380
H80         H  0.07156288  0.41750157  0.40762255     0.05910
H81         H  0.44385397  0.33899225  0.41346714     0.05760
C82         C  0.27058665  0.46575585  0.33409274     0.02800
C83         C  0.23507447  0.44876374  0.34962283    -0.13350
C84         C  0.19980774  0.41704361  0.33931077     0.00300
C85         C  0.19941548  0.39920547  0.31462703    -0.11880
C86         C  0.23325408  0.41503978  0.29818979     0.02790
C87         C  0.26946752  0.44836456  0.30802830    -0.11300
H88         H  0.23335359  0.46254324  0.36854193     0.08380
H89         H  0.17132785  0.37445861  0.30735083     0.05910
H90         H  0.29567698  0.46179834  0.29497500     0.05760
C91         C  0.12757504  0.13903477  0.16273324     0.02800
C92         C  0.15265599  0.12691866  0.17502167    -0.13350
C93         C  0.15616504  0.09563063  0.16418884     0.00300
C94         C  0.13367497  0.07442797  0.14182040    -0.11880
C95         C  0.11049328  0.08665868  0.12768157     0.02790
C96         C  0.10673688  0.11899904  0.13833767    -0.11300
H97         H  0.17159574  0.14313383  0.19226404     0.08380
H98         H  0.13636615  0.04934916  0.13456210     0.05910
H99         H  0.08920482  0.12924187  0.12736321     0.05760
C100        C  0.28899060  0.50231724  0.20827170     0.02800
C101        C  0.30579578  0.02014150  0.23408875    -0.13350
C102        C  0.30333480  0.05374897  0.24357573     0.00300
C103        C  0.28631417  0.07007974  0.22682312    -0.11880
C104        C  0.26647783  0.05059765  0.20315534     0.02790
C105        C  0.26893154  0.01811952  0.19326631    -0.11300
H106        H  0.31875244  0.50695302  0.24716783     0.08380
H107        H  0.28461435  0.09595327  0.23355121     0.05910
H108        H  0.25206911  0.50331950  0.17496147     0.05760
C109        C  0.04991078  0.25183105  0.83124822     0.02800
C110        C  0.06369081  0.28884195  0.84439474    -0.13350
C111        C  0.09538664  0.32368068  0.83366174     0.00300
C112        C  0.11587978  0.32244730  0.81083014    -0.11880
C113        C  0.10225868  0.28727938  0.79602793     0.02790
C114        C  0.06926713  0.25123804  0.80644001    -0.11300
H115        H  0.04804337  0.29160097  0.86195494     0.08380
H116        H  0.14108437  0.35023804  0.80350703     0.05910
H117        H  0.05783372  0.22375688  0.79485288     0.05760
C118        C  0.18509832  0.05069398  0.87453072     0.02800
C119        C  0.16926467  0.01451030  0.85986354    -0.13350
C120        C  0.13696309  0.47956439  0.87012675     0.00300
C121        C  0.11741354  0.48025471  0.89363848    -0.11880
C122        C  0.13357389  0.01410638  0.90996104     0.02790
C123        C  0.16716376  0.05013381  0.90019830    -0.11300
H124        H  0.18408544  0.01216273  0.84167874     0.08380
H125        H  0.09173077  0.45258625  0.90065814     0.05910
H126        H  0.18035675  0.07656604  0.91302794     0.05760
C127        C  0.38681661  0.40117736  0.66624581     0.02800
C128        C  0.40296684  0.38195957  0.68181171    -0.13350
C129        C  0.43268495  0.37583062  0.67092844     0.00300
C130        C  0.44940591  0.39124741  0.64559525    -0.11880
C131        C  0.43580276  0.41180718  0.62976878     0.02790
C132        C  0.40404841  0.41684085  0.64001293    -0.11300
H133        H  0.38992624  0.36790303  0.70131222     0.08380
H134        H  0.47265187  0.38590612  0.63794785     0.05910
H135        H  0.39180978  0.43105590  0.62725766     0.05760
C136        C  0.02237920  0.23855621  0.71104661     0.02800
C137        C  0.00658928  0.25896461  0.69646089    -0.13350
C138        C  0.47624684  0.26377620  0.70768370     0.00300
C139        C  0.45891705  0.24620680  0.73242815    -0.11880
C140        C  0.47222875  0.22445924  0.74728389     0.02790
C141        C  0.00441390  0.22053547  0.73666049    -0.11300
H142        H  0.02007615  0.27453798  0.67744799     0.08380
H143        H  0.43519194  0.25059585  0.74034983     0.05910
H144        H  0.01627638  0.20523501  0.74863316     0.05760
C145        C  0.25935375  0.15936080  0.49809760     0.02800
C146        C  0.27720468  0.15861330  0.47375649    -0.13350
C147        C  0.26577192  0.12277835  0.46026780     0.00300
C148        C  0.23463140  0.08644926  0.47182483    -0.11880
C149        C  0.21609112  0.08707150  0.49702693     0.02790
C150        C  0.23011002  0.12414796  0.51020927    -0.11300
H151        H  0.30016288  0.18686699  0.46523679     0.08380
H152        H  0.22405781  0.05853925  0.46091005     0.05910
H153        H  0.21622351  0.12657160  0.52887095     0.05760
C154        C  0.35065971  0.38566336  0.54042411     0.02800
C155        C  0.33250983  0.35108357  0.52401161    -0.13350
C156        C  0.30198276  0.31506694  0.53449734     0.00300
C157        C  0.28594200  0.31319053  0.56021682    -0.11880
C158        C  0.30140858  0.34672735  0.57689514     0.02790
C159        C  0.33419026  0.38346909  0.56704826    -0.11300
H160        H  0.34497268  0.35043185  0.50422169     0.08380
H161        H  0.26212763  0.28455812  0.56763095     0.05910
H162        H  0.34789625  0.40927063  0.58045181     0.05760
C163        C  0.22177866  0.06971198  0.00043062     0.02800
C164        C  0.23922366  0.05234807  0.01665620    -0.13350
C165        C  0.26942920  0.04665970  0.00606891     0.00300
C166        C  0.28538080  0.06093638  0.98035084    -0.11880
C167        C  0.27038288  0.07959378  0.96388066     0.02790
C168        C  0.23824437  0.08415155  0.97386709    -0.11300
H169        H  0.22670846  0.03910800  0.03644457     0.08380
H170        H  0.30894769  0.05598165  0.97284526     0.05910
H171        H  0.22504911  0.09693209  0.96063196     0.05760
C172        C  0.35773619  0.40691081  0.04408235     0.02800
C173        C  0.34362578  0.42956386  0.03047350    -0.13350
C174        C  0.31448030  0.43563939  0.04240404     0.00300
C175        C  0.29698894  0.41771275  0.06703320    -0.11880
C176        C  0.30853870  0.39377762  0.08093101     0.02790
C177        C  0.33943866  0.38832718  0.06952595    -0.11300
H178        H  0.35732915  0.44544146  0.01158992     0.08380
H179        H  0.27412367  0.42307369  0.07541920     0.05910
H180        H  0.35000279  0.37121805  0.08071662     0.05760
C181        C  0.18784173  0.06840696  0.37641671     0.02800
C182        C  0.17099001  0.08759173  0.36160939    -0.13350
C183        C  0.13771423  0.08837094  0.37159843     0.00300
C184        C  0.11856458  0.06772562  0.39514709    -0.11880
C185        C  0.13565331  0.05119597  0.41170335     0.02790
C186        C  0.17005730  0.05038614  0.40210706    -0.11300
H187        H  0.18548299  0.10504639  0.34339130     0.08380
H188        H  0.09216885  0.06835135  0.40195465     0.05910
H189        H  0.18377492  0.03776680  0.41498070     0.05760
C190        C  0.05160925  0.23023520  0.33112152     0.02800
C191        C  0.06291228  0.20461367  0.34379031    -0.13350
C192        C  0.09387566  0.20014999  0.33317517     0.00300
C193        C  0.11572655  0.22251016  0.31088630    -0.11880
C194        C  0.10382966  0.24544935  0.29619987     0.02790
C195        C  0.07182191  0.25007487  0.30649982    -0.11300
H196        H  0.04622090  0.18596652  0.36106778     0.08380
H197        H  0.14067584  0.21945077  0.30387672     0.05910
H198        H  0.06190618  0.26753282  0.29504663     0.05760
C199        C  0.46901464  0.17897453  0.24458078     0.02800
C200        C  0.45571433  0.14420201  0.22949821    -0.13350
C201        C  0.47744368  0.14326034  0.20733914     0.00300
C202        C  0.00940681  0.17852085  0.19701178    -0.11880
C203        C  0.02193901  0.21555002  0.20991689     0.02790
C204        C  0.00196042  0.21541018  0.23453968    -0.11300
H205        H  0.43004204  0.11640783  0.23633918     0.08380
H206        H  0.02597664  0.17625711  0.17984591     0.05910
H207        H  0.01282352  0.24272579  0.24624929     0.05760
C208        C  0.38606131  0.41767861  0.16435871     0.02800
C209        C  0.40281369  0.45397955  0.17886177    -0.13350
C210        C  0.43630610  0.48805317  0.16889698     0.00300
C211        C  0.45579711  0.48626653  0.14570344    -0.11880
C212        C  0.43874836  0.45227765  0.12942335     0.02790
C213        C  0.40414296  0.41707156  0.13900556    -0.11300
H214        H  0.38808399  0.45715593  0.19680426     0.08380
H215        H  0.48235308  0.51331075  0.13886319     0.05910
H216        H  0.39046799  0.39049960  0.12632660     0.05760
C217        C  0.28788823  0.25144457  0.33225711     0.02800
C218        C  0.30939865  0.28753442  0.34693561    -0.13350
C219        C  0.31651015  0.32356279  0.33555113     0.00300
C220        C  0.30033880  0.32460592  0.31051888    -0.11880
C221        C  0.27770938  0.28986635  0.29555758     0.02790
C222        C  0.27149192  0.25276830  0.30631767    -0.11300
H223        H  0.32401497  0.28871224  0.36617855     0.08380
H224        H  0.30637638  0.35335601  0.30253645     0.05910
H225        H  0.25561991  0.22576457  0.29419998     0.05760
C226        C  0.45156470  0.05077052  0.37631822     0.02800
C227        C  0.43280759  0.01506104  0.36103227    -0.13350
C228        C  0.42836285  0.47972738  0.37186185     0.00300
C229        C  0.44491893  0.47938078  0.39689884    -0.11880
C230        C  0.46482219  0.01390024  0.41255761     0.02790
C231        C  0.46836926  0.05017258  0.40229380    -0.11300
H232        H  0.41788174  0.01326575  0.34181062     0.08380
H233        H  0.44082519  0.45116336  0.40455267     0.05910
H234        H  0.48232777  0.07687955  0.41483001     0.05760
C235        C  0.28636535  0.21719101  0.70902030     0.02800
C236        C  0.27154706  0.18246150  0.69284279    -0.13350
C237        C  0.26011400  0.14534149  0.70506167     0.00300
C238        C  0.27064130  0.14427805  0.73231302    -0.11880
C239        C  0.29373051  0.17912021  0.74720659     0.02790
C240        C  0.30018630  0.21597829  0.73597881    -0.11300
H241        H  0.26519038  0.18369553  0.67137620     0.08380
H242        H  0.26141086  0.11554878  0.74180917     0.05910
H243        H  0.31413332  0.24276801  0.74842888     0.05760
C244        C  0.11615626  0.41623920  0.66769500     0.02800
C245        C  0.13030441  0.45030491  0.68452467    -0.13350
C246        C  0.14194986  0.48786328  0.67293337     0.00300
C247        C  0.13246300  0.49012875  0.64558252    -0.11880
C248        C  0.11051538  0.45601378  0.62985997     0.02790
C249        C  0.10374530  0.41872366  0.64052685    -0.11300
H250        H  0.13665222  0.44852016  0.70594552     0.08380
H251        H  0.14184489  0.01918381  0.63656582     0.05910
H252        H  0.09072668  0.39256180  0.62744394     0.05760
C253        C  0.43537117  0.06365624  0.49722494     0.02800
C254        C  0.39902250  0.04290607  0.51169753    -0.13350
C255        C  0.36432176  0.04006109  0.50122736     0.00300
C256        C  0.36508793  0.05982841  0.47743547    -0.11880
C257        C  0.39974766  0.07985963  0.46192081     0.02790
C258        C  0.43559781  0.08241517  0.47192280    -0.11300
H259        H  0.39642751  0.02586689  0.53005622     0.08380
H260        H  0.33734331  0.05721400  0.47020036     0.05910
H261        H  0.46257233  0.09710518  0.45967108     0.05760
C262        C  0.13664877  0.40152123  0.54258713     0.02800
C263        C  0.17280842  0.42361707  0.52808594    -0.13350
C264        C  0.20848680  0.42921550  0.53891523     0.00300
C265        C  0.20906323  0.41074462  0.56304451    -0.11880
C266        C  0.17460667  0.38926511  0.57847720     0.02790
C267        C  0.13777551  0.38422335  0.56821657    -0.11300
H268        H  0.17433753  0.43967931  0.50944016     0.08380
H269        H  0.23749288  0.41529176  0.57046698     0.05910
H270        H  0.11090244  0.36864813  0.58051120     0.05760
C271        C  0.30294042  0.23252861  0.20753004     0.02800
C272        C  0.33838987  0.25137978  0.19193127    -0.13350
C273        C  0.37426941  0.25743769  0.20289103     0.00300
C274        C  0.37539084  0.24215730  0.22833927    -0.11880
C275        C  0.34114590  0.22186608  0.24418048     0.02790
C276        C  0.30441418  0.21698885  0.23384882    -0.11300
H277        H  0.33950467  0.26538967  0.17239994     0.08380
H278        H  0.40393068  0.24745831  0.23610585     0.05910
H279        H  0.27794359  0.20306488  0.24664518     0.05760
C280        C  0.10251412  0.39711074  0.16452641     0.02800
C281        C  0.10264120  0.41480428  0.13872267    -0.13350
C282        C  0.06640750  0.41015520  0.12764869     0.00300
C283        C  0.03112274  0.38794452  0.14225987    -0.11880
C284        C  0.03075855  0.37075078  0.16721423     0.02790
C285        C  0.06603977  0.37629922  0.17885157    -0.11300
H286        H  0.13001199  0.43042579  0.12694299     0.08380
H287        H  0.00294482  0.38298610  0.13400738     0.05910
H288        H  0.06391002  0.36094908  0.19797044     0.05760
C289        C  0.45458321  0.08401165  0.99915546     0.02800
C290        C  0.47731654  0.12052568  0.01309329    -0.13350
C291        C  0.48051064  0.15576865  0.00305114     0.00300
C292        C  0.45914186  0.15525954  0.98016067    -0.11880
C293        C  0.43895179  0.12097326  0.96436361     0.02790
C294        C  0.43579281  0.08458399  0.97409079    -0.11300
H295        H  0.99540395  0.12264211  0.03069965     0.08380
H296        H  0.46151953  0.18313084  0.97334260     0.05910
H297        H  0.42058973  0.05772559  0.96176323     0.05760
C298        C  0.11732973  0.38325782  0.04370285     0.02800
C299        C  0.13700587  0.38426757  0.06871430    -0.13350
C300        C  0.13517794  0.34877644  0.07887995     0.00300
C301        C  0.11581167  0.31397336  0.06347957    -0.11880
C302        C  0.09365333  0.31194198  0.04071704     0.02790
C303        C  0.09528980  0.34624570  0.03026244    -0.11300
H304        H  0.15179285  0.41152922  0.08065844     0.08380
H305        H  0.11465815  0.28675647  0.07055733     0.05910
H306        H  0.07673122  0.34300468  0.01267896     0.05760
C307        C  0.26945767  0.23174288  0.83170953     0.02800
C308        C  0.23346229  0.21203221  0.84661457    -0.13350
C309        C  0.19844645  0.20794299  0.83574326     0.00300
C310        C  0.19851891  0.22560638  0.81107364    -0.11880
C311        C  0.23311366  0.24559642  0.79547441     0.02790
C312        C  0.26923056  0.24911712  0.80585422    -0.11300
H313        H  0.23128279  0.19627381  0.86554859     0.08380
H314        H  0.17044680  0.22177511  0.80346160     0.05910
H315        H  0.29608486  0.26339729  0.79346242     0.05760
C316        C  0.47057033  0.06811362  0.87550028     0.02800
C317        C  0.00639710  0.08924681  0.86046597    -0.13350
C318        C  0.04232872  0.09534053  0.87121895     0.00300
C319        C  0.04353951  0.07854522  0.89601708    -0.11880
C320        C  0.00920260  0.05693345  0.91160132     0.02790
C321        C  0.47217969  0.05156659  0.90137847    -0.11300
H322        H  0.00753904  0.10440887  0.84145686     0.08380
H323        H  0.07218364  0.08384817  0.90356322     0.05910
H324        H  0.44548956  0.03625749  0.91387922     0.05760
O325        O  0.37976754  0.08741287  0.78500117    -0.80460
O326        O  0.24620478  0.11264855  0.88284745    -0.82020
O327        O  0.28722754  0.02916399  0.82419186    -0.79040
O328        O  0.29541185  0.13966171  0.78487668    -0.77420
O329        O  0.34297719  0.20606339  0.78232241    -0.79210
O330        O  0.31457108  0.02172968  0.86384150    -0.80150
O331        O  0.23919167  0.07888779  0.84281350    -0.81470
O332        O  0.31345604  0.06861637  0.78246015    -0.81760
Eu333      Eu  0.30570378  0.10056307  0.82249781     2.39200
O334        O  0.32015319  0.16319668  0.83832361    -0.89270
O335        O  0.35601315  0.08794769  0.83866275    -0.92870
C336        C  0.34454055  0.06844011  0.77357787     1.01820
C337        C  0.22529361  0.08405025  0.86573815     1.01630
C338        C  0.29652113  0.00867123  0.84047742     1.01580
C339        C  0.31129502  0.17504551  0.77349119     0.99440
H340        H  0.28311095  0.07627284  0.87815951     0.29190
O341        O  0.30693371  0.09890111  0.87093529    -1.01660
H342        H  0.36925064  0.15011503  0.78690582     0.29220
O343        O  0.36930254  0.15010968  0.80674285    -1.04200
O344        O  0.35751732  0.21016118  0.92515613    -0.81430
O345        O  0.49008302  0.18840199  0.82449765    -0.80960
O346        O  0.30964952  0.07873083  0.92586491    -0.79400
O347        O  0.33213856  0.23404614  0.82454284    -0.82740
O348        O  0.43202594  0.22276882  0.78499232    -0.80600
O349        O  0.40765889  0.06539413  0.88371304    -0.79240
O350        O  0.43892010  0.16090146  0.92635669    -0.80770
O351        O  0.45516273  0.27305945  0.88335114    -0.82690
O352        O  0.39338385  0.09370323  0.92777595    -0.79430
O353        O  0.42897561  0.28019413  0.84304033    -0.82100
O354        O  0.28832719  0.12436227  0.92693396    -0.77840
O355        O  0.44037912  0.09108295  0.84311389    -0.77870
O356        O  0.45073228  0.17529715  0.78229515    -0.77520
O357        O  0.29667084  0.20527092  0.86373369    -0.81010
O358        O  0.42442065  0.23143540  0.92701139    -0.80440
O359        O  0.49728564  0.22299188  0.86415218    -0.78760
Eu360      Eu  0.31880967  0.16234183  0.88640986     2.39770
Eu361      Eu  0.41867645  0.13601142  0.82271795     2.39570
Eu362      Eu  0.35670175  0.08688574  0.88676653     2.38400
Eu363      Eu  0.38336036  0.21365938  0.82242744     2.39880
Eu364      Eu  0.43198982  0.20034484  0.88685398     2.39790
O365        O  0.43124449  0.19907169  0.83869211    -0.93180
O366        O  0.36897455  0.14977982  0.90181455    -0.92070
C367        C  0.39295797  0.23020109  0.93639491     1.01990
C368        C  0.01064169  0.21792683  0.84093484     1.00710
C369        C  0.29000614  0.09462580  0.93690647     1.00100
C370        C  0.30251251  0.22488803  0.84092904     1.02110
C371        C  0.45107947  0.20674096  0.77346329     1.01030
C372        C  0.43609872  0.07302637  0.86644737     0.99880
C373        C  0.42301821  0.12532424  0.93765959     0.99930
C374        C  0.44783054  0.29406801  0.86609397     1.02550
H375        H  0.44291289  0.13796311  0.87846545     0.29920
O376        O  0.42015197  0.13866542  0.87116967    -1.05340
H377        H  0.38187906  0.23595297  0.87795237     0.31970
O378        O  0.38072125  0.21217341  0.87082492    -1.07900
O379        O  0.46845766  0.42511370  0.94829982    -0.80460
O380        O  0.11998390  0.44612651  0.05042899    -0.82020
O381        O  0.09561021  0.47407738  0.94843899    -0.79040
O382        O  0.49902357  0.36094900  0.99104245    -0.77420
O383        O  0.46645625  0.35316540  0.03174041    -0.79210
O384        O  0.11737056  0.04128904  0.94736255    -0.80150
O385        O  0.09266977  0.41123697  0.01083388    -0.81470
O386        O  0.51368661  0.40330908  0.94726296    -0.81760
Eu387      Eu  0.05010562  0.43378497  0.98804511     2.39200
O388        O  0.05089168  0.43498882  0.03609351    -0.89270
O389        O  0.03788512  0.48448484  0.97322305    -0.92870
C390        C  0.48435346  0.40544522  0.93717068     1.01820
C391        C  0.11117555  0.41658713  0.03405330     1.01630
C392        C  0.11489567  0.50970223  0.93718051     1.01580
C393        C  0.47061665  0.33974691  0.00830715     0.99440
H394        H  0.12361015  0.49714041  0.99643487     0.29190
O395        O  0.09988728  0.49589357  0.00373911    -1.01660
H396        H  0.46368762  0.39773067  0.99609872     0.29220
O397        O  0.48645401  0.42133160  0.00337156    -1.04200
O398        O  0.10845602  0.04632149  0.08992688    -0.81430
O399        O  0.45259637  0.02158018  0.99085694    -0.80960
O400        O  0.16053943  0.07007905  0.99189848    -0.79400
O401        O  0.02814009  0.41141835  0.08945272    -0.82740
O402        O  0.41706212  0.40248371  0.05034966    -0.80600
O403        O  0.04908308  0.05617770  0.94940484    -0.79240
O404        O  0.07495371  0.10497226  0.05043032    -0.80770
O405        O  0.47602617  0.99164949  0.09086975    -0.82690
O406        O  0.11004452  0.11283516  0.01093224    -0.79430
O407        O  0.45740529  0.42522384  0.09292053    -0.82100
O408        O  0.16761163  0.04373312  0.03214279    -0.77840
O409        O  0.98221813  0.00990414  0.94749257    -0.77870
O410        O  0.40928066  0.42906518  0.01044182    -0.77520
O411        O  0.09418954  0.45954827  0.09271464    -0.81010
O412        O  0.06080715  0.06466268  0.09309164    -0.80440
O413        O  0.47746119  0.05385379  0.03169229    -0.78760
Eu414      Eu  0.10091499  0.49836607  0.05217921     2.39770
Eu415      Eu  0.47472747  0.47133352  0.98778075     2.39570
Eu416      Eu  0.08796316  0.04758358  0.98848638     2.38400
Eu417      Eu  0.48813496  0.41987163  0.05174725     2.39880
Eu418      Eu  0.02283704  0.03285179  0.05240379     2.39790
O419        O  0.47519712  0.47024298  0.03596266    -0.93180
O420        O  0.08650830  0.04677605  0.03664043    -0.92070
C421        C  0.09226588  0.06506922  0.10175344     1.01990
C422        C  0.45983087  0.04975544  0.00820677     1.00710
C423        C  0.18150857  0.06265255  0.00911066     1.00100
C424        C  0.06311558  0.42778087  0.10132339     1.02110
C425        C  0.39634859  0.41131922  0.03396119     1.01030
C426        C  0.01364847  0.04035948  0.93806013     0.99880
C427        C  0.10428490  0.12620121  0.03388214     0.99930
C428        C  0.45780683  0.45626596  0.10242061     1.02550
H429        H  0.02514446  0.05741173  0.99690474     0.29920
O430        O  0.02596139  0.03458728  0.00402450    -1.05340
H431        H  0.03739345  0.48323464  0.08741966     0.31970
O432        O  0.03726916  0.48348442  0.06759211    -1.07900
O433        O  0.44193002  0.21386417  0.42313967    -0.80460
O434        O  0.28488266  0.18841030  0.32441794    -0.82020
O435        O  0.40822868  0.27187010  0.38334615    -0.79040
O436        O  0.30680663  0.16067330  0.42249396    -0.77420
O437        O  0.28816139  0.09451354  0.42619834    -0.79210
O438        O  0.44345648  0.27912888  0.34398728    -0.80150
O439        O  0.31049842  0.22140504  0.36488581    -0.81470
O440        O  0.39402651  0.23196902  0.42575974    -0.81760
Eu441      Eu  0.35577167  0.20028748  0.38508709     2.39200
O442        O  0.30764060  0.13740388  0.36943318    -0.89270
O443        O  0.41911128  0.21350367  0.36927639    -0.92870
C444        C  0.42537519  0.23241647  0.43474427     1.01820
C445        C  0.29247541  0.21692863  0.34157696     1.01630
C446        C  0.43811574  0.29243256  0.36712158     1.01580
C447        C  0.28762415  0.12574634  0.43445752     0.99440
H448        H  0.35754434  0.22430964  0.32949353     0.29190
O449        O  0.35841632  0.20156441  0.33672904    -1.01660
H450        H  0.36987582  0.15133193  0.42087536     0.29220
O451        O  0.36993001  0.15110802  0.40104408    -1.04200
O452        O  0.30132570  0.09214931  0.28175941    -0.81430
O453        O  0.45292192  0.11317330  0.38369093    -0.80960
O454        O  0.38099573  0.22178252  0.28212993    -0.79400
O455        O  0.24886699  0.06751638  0.38377989    -0.82740
O456        O  0.36077445  0.07998180  0.42389968    -0.80600
O457        O  0.49259524  0.23502173  0.32378515    -0.79240
O458        O  0.42872092  0.13971086  0.28261133    -0.80770
O459        O  0.33214790  0.02745890  0.32550606    -0.82690
O460        O  0.44999520  0.20672604  0.28032669    -0.79430
O461        O  0.29870848  0.02028344  0.36572449    -0.82100
O462        O  0.31394526  0.17598454  0.28074727    -0.77840
O463        O  0.50022816  0.21025914  0.36463583    -0.77870
O464        O  0.42712574  0.12774630  0.42629121    -0.77520
O465        O  0.24151694  0.09496916  0.34412913    -0.81010
O466        O  0.34640204  0.07014165  0.28113839    -0.80440
O467        O  0.42558646  0.07833325  0.34413699    -0.78760
Eu468      Eu  0.30684360  0.13791703  0.32128391     2.39770
Eu469      Eu  0.43359918  0.16548626  0.38544534     2.39570
Eu470      Eu  0.42025420  0.21385758  0.32115988     2.38400
Eu471      Eu  0.32039668  0.08720757  0.38588566     2.39880
Eu472      Eu  0.38219395  0.10022344  0.32201709     2.39790
O473        O  0.38313419  0.10167509  0.37013175    -0.93180
O474        O  0.36980995  0.15053556  0.30657018    -0.92070
C475        C  0.31745970  0.07263358  0.27075810     1.01990
C476        C  0.44452675  0.08385154  0.36715592     1.00710
C477        C  0.34546038  0.20600794  0.27096695     1.00100
C478        C  0.22806360  0.07597882  0.36722358     1.02110
C479        C  0.39601196  0.09657138  0.43543472     1.01030
C480        C  0.51343106  0.22728364  0.34091356     0.99880
C481        C  0.44829016  0.17504384  0.27096466     0.99930
C482        C  0.30372444  0.00634964  0.34273367     1.02550
H483        H  0.45515816  0.16270254  0.32987697     0.29920
O484        O  0.43182398  0.16226416  0.33714308    -1.05340
H485        H  0.29616031  0.06433041  0.33015099     0.31970
O486        O  0.31872865  0.08814247  0.33739909    -1.07900
O487        O  0.24512333  0.43583939  0.71850418    -0.80460
O488        O  0.26192436  0.30614432  0.61504144    -0.82020
O489        O  0.32611056  0.40251935  0.65795635    -0.79040
O490        O  0.21446251  0.38867702  0.61617611    -0.77420
O491        O  0.14737332  0.34321829  0.61480118    -0.79210
O492        O  0.33313735  0.37641213  0.69834719    -0.80150
O493        O  0.28394865  0.37337715  0.61417622    -0.81470
O494        O  0.27823746  0.44563375  0.67787978    -0.81760
Eu495      Eu  0.25375207  0.38048279  0.65497252     2.39200
O496        O  0.20300478  0.31788676  0.63980113    -0.89270
O497        O  0.25170173  0.37852362  0.70302022    -0.92870
C498        C  0.27361465  0.45773621  0.70167944     1.01820
C499        C  0.28185397  0.34189205  0.60401329     1.01630
C500        C  0.34695868  0.39495463  0.67515798     1.01580
C501        C  0.17894148  0.37305529  0.60502591     0.99440
H502        H  0.28881472  0.32962518  0.66294056     0.29190
O503        O  0.26529509  0.32873785  0.67030436    -1.01660
H504        H  0.19092392  0.39187428  0.66399243     0.29220
O505        O  0.19210580  0.36917579  0.67101133    -1.04200
O506        O  0.16086857  0.19661115  0.65651657    -0.81430
O507        O  0.14152541  0.32598119  0.75776918    -0.80960
O508        O  0.28679616  0.27915293  0.71594551    -0.79400
O509        O  0.13095655  0.25763128  0.61661517    -0.82740
O510        O  0.11718821  0.35523263  0.65942748    -0.80600
O511        O  0.27455769  0.37879667  0.75666097    -0.79240
O512        O  0.19398862  0.24542039  0.75727728    -0.80770
O513        O  0.08251868  0.23565306  0.71794368    -0.82690
O514        O  0.26040212  0.29292885  0.75947409    -0.79430
O515        O  0.07533744  0.26346778  0.67843819    -0.82100
O516        O  0.25724630  0.24285275  0.67721500    -0.77840
O517        O  0.22705847  0.39738061  0.76020535    -0.77870
O518        O  0.14473614  0.38959389  0.69916669    -0.77520
O519        O  0.17644664  0.23621552  0.61446974    -0.81010
O520        O  0.12959847  0.18708894  0.69798896    -0.80440
O521        O  0.12287900  0.25969700  0.76057453    -0.78760
Eu522      Eu  0.21530456  0.26718371  0.65465386     2.39770
Eu523      Eu  0.18899689  0.36627276  0.71948248     2.39570
Eu524      Eu  0.26656450  0.33070714  0.71870178     2.38400
Eu525      Eu  0.14040801  0.30586350  0.65543836     2.39880
Eu526      Eu  0.15371076  0.25345892  0.71938663     2.39790
O527        O  0.14083360  0.30389005  0.70359231    -0.93180
O528        O  0.21609405  0.26706016  0.70297097    -0.92070
C529        C  0.13269188  0.17507060  0.67372218     1.01990
C530        C  0.12292541  0.29084242  0.76959464     1.00710
C531        C  0.27780891  0.24937503  0.69969952     1.00100
C532        C  0.14613016  0.23747139  0.60524059     1.02110
C533        C  0.12472334  0.38382926  0.67649082     1.01030
C534        C  0.25848021  0.39754061  0.76870651     0.99880
C535        C  0.22928060  0.26190180  0.76875970     0.99930
C536        C  0.06192330  0.24466802  0.70156576     1.02550
H537        H  0.20349393  0.31675741  0.75451645     0.29920
O538        O  0.20329772  0.31683058  0.73468842    -1.05340
H539        H  0.12910236  0.23424124  0.66405793     0.31970
O540        O  0.15286969  0.25688837  0.67117641    -1.07900
O541        O  0.21303363  0.25591733  0.11724394    -0.80460
O542        O  0.08173959  0.27909859  0.21739880    -0.82020
O543        O  0.12257517  0.19804765  0.15670675    -0.79040
O544        O  0.13432572  0.31006685  0.11742706    -0.77420
O545        O  0.18233801  0.37639139  0.11482681    -0.79210
O546        O  0.14925673  0.19012945  0.19650793    -0.80150
O547        O  0.07408715  0.24644487  0.17672116    -0.81470
O548        O  0.14681189  0.23740958  0.11497009    -0.81760
Eu549      Eu  0.14070349  0.26925324  0.15566531     2.39200
O550        O  0.15524968  0.33177095  0.17187141    -0.89270
O551        O  0.19079408  0.25604707  0.17147458    -0.92870
C552        C  0.17774459  0.23723055  0.10576142     1.01820
C553        C  0.06080522  0.25041747  0.20032979     1.01630
C554        C  0.13153572  0.17734321  0.17299573     1.01580
C555        C  0.15131408  0.34526023  0.10564360     0.99440
H556        H  0.11915572  0.24444457  0.21125465     0.29190
O557        O  0.14255879  0.26749998  0.20403593    -1.01660
H558        H  0.20463058  0.31885417  0.12031742     0.29220
O559        O  0.20443223  0.31860599  0.14014762    -1.04200
O560        O  0.19333103  0.37653057  0.25975060    -0.81430
O561        O  0.32504530  0.35533930  0.15724157    -0.80960
O562        O  0.14488989  0.24724579  0.25859697    -0.79400
O563        O  0.16572149  0.40029355  0.15787193    -0.82740
O564        O  0.26786591  0.39119129  0.11873660    -0.80600
O565        O  0.24127077  0.23193342  0.21600685    -0.79240
O566        O  0.27655646  0.32962435  0.25800958    -0.80770
O567        O  0.29015032  0.44134254  0.21653426    -0.82690
O568        O  0.23054116  0.26262345  0.25984220    -0.79430
O569        O  0.26404950  0.44865688  0.17628911    -0.82100
O570        O  0.12374339  0.29295158  0.26066829    -0.77840
O571        O  0.27439783  0.25803496  0.17559111    -0.77870
O572        O  0.28579680  0.34324681  0.11511090    -0.77520
O573        O  0.13092311  0.37292445  0.19754141    -0.81010
O574        O  0.26036630  0.39807168  0.26082222    -0.80440
O575        O  0.33217917  0.39116610  0.19624296    -0.78760
Eu576      Eu  0.15413401  0.33060507  0.22006991     2.39770
Eu577      Eu  0.25337080  0.30371781  0.15532352     2.39570
Eu578      Eu  0.19198545  0.25517208  0.21957685     2.38400
Eu579      Eu  0.21879251  0.38210507  0.15606683     2.39880
Eu580      Eu  0.26750890  0.36864289  0.21958107     2.39790
O581        O  0.26662742  0.36706996  0.17149347    -0.93180
O582        O  0.20462997  0.31806912  0.23476954    -0.92070
C583        C  0.22886837  0.39593715  0.27097862     1.01990
C584        C  0.34573545  0.38511611  0.17347432     1.00710
C585        C  0.12516884  0.26279629  0.27004852     1.00100
C586        C  0.13617326  0.39146504  0.17430075     1.02110
C587        C  0.28673133  0.37520441  0.10682424     1.01030
C588        C  0.26951302  0.23922581  0.19869290     0.99880
C589        C  0.26091885  0.29410865  0.26924013     0.99930
C590        C  0.28262932  0.46236164  0.19940315     1.02550
H591        H  0.27783602  0.30537918  0.21071182     0.29920
O592        O  0.25524637  0.30668917  0.20372383    -1.05340
H593        H  0.21717523  0.40437019  0.21183501     0.31970
O594        O  0.21604475  0.38071696  0.20446765    -1.07900
O595        O  0.02290207  0.04512636  0.58996694    -0.80460
O596        O  0.15670423  0.02289307  0.49110299    -0.82020
O597        O  0.10936910  0.99655121  0.59236816    -0.79040
O598        O  0.12110125  0.10709000  0.55018825    -0.77420
O599        O  0.09569004  0.11427713  0.50951294    -0.79210
O600        O  0.06372769  0.42937094  0.59362261    -0.80150
O601        O  0.16409617  0.05824494  0.53039454    -0.81470
O602        O  0.08969682  0.06638079  0.59290103    -0.81760
Eu603      Eu  0.09892630  0.03454643  0.55351824     2.39200
O604        O  0.09869321  0.03295831  0.50527488    -0.89270
O605        O  0.03573544  0.48375523  0.56862129    -0.92870
C606        C  0.05804591  0.06573323  0.60134490     1.01820
C607        C  0.17731309  0.05288778  0.50722319     1.01630
C608        C  0.09408340  0.46080139  0.60328180     1.01580
C609        C  0.11349892  0.12793445  0.53295383     0.99440
H610        H  0.10954772  0.47170355  0.54507391     0.29190
O611        O  0.08684039  0.47264163  0.53793771    -1.01660
H612        H  0.04811994  0.06911558  0.54363621     0.29220
O613        O  0.04735485  0.04538076  0.53684500    -1.04200
O614        O  0.04569043  0.42119250  0.45175976    -0.81430
O615        O  0.41257701  0.44680975  0.54907582    -0.80960
O616        O  0.07371769  0.39851691  0.55061320    -0.79400
O617        O  0.09813762  0.05334776  0.45013054    -0.82740
O618        O  0.49834951  0.06624251  0.49013892    -0.80600
O619        O  0.47602612  0.41194695  0.59216604    -0.79240
O620        O  0.45281928  0.36262436  0.49098033    -0.80770
O621        O  0.46481579  0.47461711  0.45069555    -0.82690
O622        O  0.48153676  0.35579346  0.53013271    -0.79430
O623        O  0.51269980  0.04100582  0.44808410    -0.82100
O624        O  0.10663715  0.42432325  0.51009732    -0.77840
O625        O  0.45480021  0.45761637  0.59314253    -0.77870
O626        O  0.46288691  0.03790173  0.52939618    -0.77520
O627        O  0.11676093  0.00566610  0.44854059    -0.81010
O628        O  0.97966138  0.40278927  0.44820290    -0.80440
O629        O  0.40564320  0.41306564  0.50908857    -0.78760
Eu630      Eu  0.08538236  0.46940417  0.48964518     2.39770
Eu631      Eu  0.48531082  0.49564517  0.55240430     2.39570
Eu632      Eu  0.02363317  0.42083349  0.55353276     2.38400
Eu633      Eu  0.05105640  0.04745346  0.48855495     2.39880
Eu634      Eu  0.47242511  0.43422910  0.48879147     2.39790
O635        O  0.48740848  0.49705982  0.50432392    -0.93180
O636        O  0.02257770  0.42137829  0.50535018    -0.92070
C637        C  0.01086043  0.40249469  0.43970661     1.01990
C638        C  0.39151955  0.41843446  0.53188918     1.00710
C639        C  0.10224947  0.40629960  0.53343883     1.00100
C640        C  0.11647331  0.03627609  0.43879922     1.02110
C641        C  0.46860975  0.05711260  0.50645527     1.01030
C642        C  0.45619962  0.42768511  0.60308561     0.99880
C643        C  0.46196527  0.34207074  0.50731304     0.99930
C644        C  0.48137745  0.50993737  0.43909665     1.02550
H645        H  0.44950646  0.40987504  0.54434478     0.29920
O646        O  0.47357273  0.43234918  0.53723209    -1.05340
H647        H  0.03634737  0.48330037  0.45366549     0.31970
O648        O  0.03631739  0.48351789  0.47349322    -1.07900
C649        C  0.09927037  0.16414387  0.87031754    -0.02180
C650        C  0.08043630  0.12503759  0.85956968     0.07500
C651        C  0.10094755  0.11269291  0.84209434    -0.02290
C652        C  0.14078063  0.13959615  0.83545836    -0.02300
C653        C  0.15977576  0.17848048  0.84664119     0.07630
C654        C  0.13929289  0.19084443  0.86409831    -0.02490
Br655      Br  0.16627222  0.24413256  0.87936403    -0.01040
Br656      Br  0.07020326  0.18082008  0.89371144    -0.01110
Br657      Br  0.16919885  0.12360537  0.81065907    -0.01070
Br658      Br  0.07434717  0.05905004  0.82751622    -0.01060
C659        C  0.00671984  0.20671796  0.03994245    -0.02180
C660        C  0.01079568  0.19470631  0.01356713     0.07500
C661        C  0.04212529  0.22117772  0.99598451    -0.02290
C662        C  0.06872126  0.26018669  0.00451576    -0.02300
C663        C  0.06426081  0.27237285  0.03071176     0.07630
C664        C  0.03320032  0.24581348  0.04844265    -0.02490
Br665      Br  0.02569822  0.26318233  0.08403036    -0.01040
Br666      Br  0.96437833  0.17009185  0.06409723    -0.01110
Br667      Br  0.11165185  0.29660367  0.98060874    -0.01070
Br668      Br  0.04954307  0.20394842  0.96040862    -0.01060
C669        C  0.43744460  0.27288787  0.18018267    -0.02180
C670        C  0.41258030  0.28632144  0.19093465     0.07500
C671        C  0.42725646  0.32737906  0.19557428    -0.02290
C672        C  0.46687052  0.35518828  0.18897690    -0.02300
C673        C  0.49180553  0.34173951  0.17834074     0.07630
C674        C  0.47710651  0.30069325  0.17369575    -0.02490
Br675      Br  0.01057228  0.28267155  0.15715582    -0.01040
Br676      Br  0.41720500  0.21635561  0.17493971    -0.01110
Br677      Br  0.48708951  0.41168512  0.19438196    -0.01070
Br678      Br  0.39406079  0.34533211  0.21278953    -0.01060
C679        C  0.30184766  0.47540448  0.49695798    -0.02180
C680        C  0.32534223  0.01088031  0.51197458     0.07500
C681        C  0.30978655  0.02055019  0.53477470    -0.02290
C682        C  0.27022497  0.49467307  0.54257425    -0.02300
C683        C  0.24681660  0.45904986  0.52766335     0.07630
C684        C  0.26231308  0.44949501  0.50477244    -0.02490
Br685      Br  0.22965558  0.40060328  0.48470313    -0.01040
Br686      Br  0.32403895  0.46207549  0.46591345    -0.01110
Br687      Br  0.24803725  0.50796308  0.57366888    -0.01070
Br688      Br  0.34262098  0.06918422  0.55501682    -0.01060
C689        C  0.19391900  0.09754955  0.68416518    -0.02180
C690        C  0.23243365  0.10628576  0.69197929     0.07500
C691        C  0.23976308  0.07448632  0.69541994    -0.02290
C692        C  0.20807110  0.03490512  0.69413492    -0.02300
C693        C  0.16937821  0.02629578  0.68673077     0.07630
C694        C  0.16202084  0.05812728  0.68363806    -0.02490
Br695      Br  0.10788626  0.04730728  0.67853393    -0.01040
Br696      Br  0.18606494  0.13759737  0.66827738    -0.01110
Br697      Br  0.21739223  0.99347220  0.70548772    -0.01070
Br698      Br  0.29404207  0.08583373  0.70016817    -0.01060
C699        C  0.33172560  0.38519890  0.36011891    -0.02180
C700        C  0.34546319  0.36181371  0.34737514     0.07500
C701        C  0.38621739  0.37789993  0.34099009    -0.02290
C702        C  0.41347609  0.41768077  0.34764448    -0.02300
C703        C  0.39969881  0.44107458  0.36036232     0.07630
C704        C  0.35894923  0.42490134  0.36681635    -0.02490
Br705      Br  0.34066852  0.45645371  0.38600710    -0.01040
Br706      Br  0.27553305  0.36278964  0.36791843    -0.01110
Br707      Br  0.46959470  0.44031167  0.33953430    -0.01070
Br708      Br  0.40430664  0.34607496  0.32195657    -0.01060
C709        C  0.47229770  0.07719399  0.21487860    -0.02180
C710        C  0.46858727  0.10416612  0.19707989     0.07500
C711        C  0.45329808  0.09252456  0.17047120    -0.02290
C712        C  0.44132353  0.05376066  0.16169291    -0.02300
C713        C  0.44657673  0.02745927  0.17910904     0.07630
C714        C  0.46204240  0.03904619  0.20563076    -0.02490
Br715      Br  0.46957561  0.00285665  0.22903306    -0.01040
Br716      Br  0.49043428  0.09152616  0.25218488    -0.01110
Br717      Br  0.41559593  0.03621308  0.12635582    -0.01070
Br718      Br  0.44651976  0.12875512  0.14665355    -0.01060
C719        C  0.09794543  0.13865861  0.32620988    -0.02180
C720        C  0.10241320  0.16986235  0.34370409     0.07500
C721        C  0.11964222  0.17492384  0.36978107    -0.02290
C722        C  0.13309267  0.14922060  0.37821587    -0.02300
C723        C  0.12724387  0.11719946  0.36112823     0.07630
C724        C  0.10969345  0.11179236  0.33518968    -0.02490
Br725      Br  0.10152666  0.06752211  0.31222424    -0.01040
Br726      Br  0.07687185  0.13298754  0.28962790    -0.01110
Br727      Br  0.16149142  0.15937859  0.41261609    -0.01070
Br728      Br  0.12698624  0.21837978  0.39328037    -0.01060
C729        C  0.31710241  0.03251510  0.03009868    -0.02180
C730        C  0.27912317  0.01837163  0.01849982     0.07500
C731        C  0.25368463  0.47728374  0.01323783    -0.02290
C732        C  0.26631315  0.45020050  0.01974178    -0.02300
C733        C  0.30435012  0.46435034  0.03125283     0.07630
C734        C  0.32964288  0.00535725  0.03672855    -0.02490
Br735      Br  0.38059444  0.02407747  0.05435105    -0.01040
Br736      Br  0.35197282  0.08908513  0.03627379    -0.01110
Br737      Br  0.23166725  0.39369014  0.01299223    -0.01070
Br738      Br  0.20263315  0.45832380  0.99548496    -0.01060
C739        C  0.24342363  0.21341321  0.50324572    -0.02180
C740        C  0.26914826  0.19836739  0.50882657     0.07500
C741        C  0.30688371  0.22275175  0.52067170    -0.02290
C742        C  0.31869535  0.26221640  0.52751871    -0.02300
C743        C  0.29280483  0.27716424  0.52217137     0.07630
C744        C  0.25525454  0.25294497  0.51007921    -0.02490
Br745      Br  0.22017524  0.27401342  0.50332254    -0.01040
Br746      Br  0.19275090  0.18044755  0.48539397    -0.01110
Br747      Br  0.36928317  0.29491885  0.54578606    -0.01070
Br748      Br  0.34213887  0.20185660  0.52760226    -0.01060
C749        C  0.42827332  0.27867670  0.68479419    -0.02180
C750        C  0.46621549  0.29251277  0.69639630     0.07500
C751        C  0.49187523  0.33353831  0.70168340    -0.02290
C752        C  0.47977357  0.36095765  0.69488633    -0.02300
C753        C  0.44201605  0.34713645  0.68305488     0.07630
C754        C  0.41631474  0.30612494  0.67775668    -0.02490
Br755      Br  0.36594918  0.28782867  0.65919416    -0.01040
Br756      Br  0.39276359  0.22219182  0.67874111    -0.01110
Br757      Br  0.01492642  0.41749483  0.70119260    -0.01070
Br758      Br  0.04269096  0.35200141  0.71942848    -0.01060
C759        C  0.09729482  0.38794410  0.82629425    -0.02180
C760        C  0.10428031  0.36278707  0.84368276     0.07500
C761        C  0.12259828  0.37616541  0.86933443    -0.02290
C762        C  0.13506044  0.41533693  0.87739150    -0.02300
C763        C  0.12802149  0.44051265  0.85998381     0.07630
C764        C  0.10952061  0.42706738  0.83439698    -0.02490
Br765      Br  0.10029063  0.46189511  0.81082414    -0.01040
Br766      Br  0.06974486  0.36848782  0.79176401    -0.01110
Br767      Br  0.16279226  0.43460239  0.91202461    -0.01070
Br768      Br  0.13113604  0.34110346  0.89316711    -0.01060
C769        C  0.17995595  0.06846348  0.20071030    -0.02180
C770        C  0.18565048  0.08616031  0.17471161     0.07500
C771        C  0.21717094  0.09110785  0.15745099    -0.02290
C772        C  0.24293684  0.07785982  0.16620438    -0.02300
C773        C  0.23724910  0.06019870  0.19222384     0.07630
C774        C  0.20535580  0.05479739  0.20931829    -0.02490
Br775      Br  0.19533203  0.02747861  0.24426283    -0.01040
Br776      Br  0.13684529  0.06202256  0.22425748    -0.01110
Br777      Br  0.28624918  0.08449552  0.14287551    -0.01070
Br778      Br  0.22587434  0.11703965  0.12213276    -0.01060
C779        C  0.14009981  0.42393427  0.33632662    -0.02180
C780        C  0.16125682  0.40829728  0.35025670     0.07500
C781        C  0.14355069  0.38077987  0.37179963    -0.02290
C782        C  0.10415851  0.36844110  0.37932208    -0.02300
C783        C  0.08299971  0.38392078  0.36523495     0.07630
C784        C  0.10072166  0.41146147  0.34373600    -0.02490
Br785      Br  0.07112649  0.43225289  0.32480760    -0.01040
Br786      Br  0.16511708  0.46245052  0.30704171    -0.01110
Br787      Br  0.07896555  0.33018154  0.40874153    -0.01070
Br788      Br  0.17314441  0.35996948  0.39059993    -0.01060
C789        C  0.30065627  0.21035820  0.02587048    -0.02180
C790        C  0.32557282  0.24824083  0.01425940     0.07500
C791        C  0.31115674  0.27457406  0.00885696    -0.02290
C792        C  0.27163404  0.26304416  0.01543818    -0.02300
C793        C  0.24663855  0.22502942  0.02689473     0.07630
C794        C  0.26115581  0.19878330  0.03233647    -0.02490
Br795      Br  0.22767870  0.14783238  0.04998629    -0.01040
Br796      Br  0.32067526  0.17427962  0.03249682    -0.01110
Br797      Br  0.25158860  0.29908091  0.00889661    -0.01070
Br798      Br  0.34477460  0.32536763  0.99100368    -0.01060
C799        C  0.04800244  0.27028604  0.50806431    -0.02180
C800        C  0.00702579  0.24462672  0.51338506     0.07500
C801        C  0.49306732  0.20669552  0.52518264    -0.02290
C802        C  0.02037503  0.19456635  0.53222996    -0.02300
C803        C  0.06137377  0.22031946  0.52701330     0.07630
C804        C  0.07528086  0.25819382  0.51513180    -0.02490
Br805      Br  0.13174169  0.29362795  0.50907050    -0.01040
Br806      Br  0.06660520  0.32106320  0.48980537    -0.01110
Br807      Br  0.50190939  0.14378625  0.55042556    -0.01070
Br808      Br  0.43660422  0.17158508  0.53144357    -0.01060
C809        C  0.38418556  0.42592169  0.82567881    -0.02180
C810        C  0.35093537  0.41775634  0.84221424     0.07500
C811        C  0.34353778  0.39668873  0.86701409    -0.02290
C812        C  0.36920083  0.38312120  0.87521936    -0.02300
C813        C  0.40278017  0.39175692  0.85888701     0.07630
C814        C  0.41012947  0.41268438  0.83403777    -0.02490
Br815      Br  0.45588906  0.42361243  0.81185038    -0.01580
Br816      Br  0.39464218  0.45586383  0.79184866    -0.01110
Br817      Br  0.35771446  0.35188788  0.90859067    -0.01070
Br818      Br  0.29782607  0.38563584  0.88935383    -0.01060
C819        C  0.46344177  0.04591998  0.68714268    -0.02180
C820        C  0.48846730  0.08472437  0.67707735     0.07500
C821        C  0.47494457  0.11218620  0.67399734    -0.02290
C822        C  0.43605084  0.10093183  0.68181626    -0.02300
C823        C  0.41094992  0.06204274  0.69182346     0.07630
C824        C  0.42461746  0.03460354  0.69481420    -0.02490
Br825      Br  0.39160588  0.48261139  0.71145273    -0.01040
Br826      Br  0.48228890  0.00819359  0.69002881    -0.01110
Br827      Br  0.41736644  0.13867997  0.67940983    -0.01070
Br828      Br  0.00867524  0.16401749  0.65747235    -0.01060
C829        C  0.30493597  0.99847019  0.71081927     0.02800
C830        C  0.33809196  0.51975218  0.69368262    -0.13350
C831        C  0.37293797  0.55176689  0.70399140     0.00300
C832        C  0.37404085  0.56678602  0.72990242    -0.11880
C833        C  0.34090539  0.54865725  0.74695018     0.02790
C834        C  0.30597069  0.51377805  0.73763054    -0.11300
H835        H  0.33923748  0.00841866  0.67355707     0.08380
H836        H  0.40182230  0.59201241  0.73714302     0.05910
H837        H  0.28062006  0.49827679  0.75126124     0.05760
C838        C  0.09823793  0.63686742  0.66358415     0.02800
C839        C  0.06200670  0.62249496  0.67763062    -0.13350
C840        C  0.02652622  0.59427709  0.66550462     0.00300
C841        C  0.02610196  0.57719372  0.64058996    -0.11880
C842        C  0.06134849  0.58824541  0.62669315     0.02790
C843        C  0.09789327  0.61927472  0.63777146    -0.11300
H844        H  0.06042057  0.63568267  0.69687955     0.08380
H845        H  0.99753644  0.55482935  0.63218507     0.05910
H846        H  0.12529948  0.63011143  0.62619580     0.05760
C847        C  0.29248203  0.97023155  0.83035599     0.02800
C848        C  0.27226111  0.95064938  0.80570046    -0.13350
C849        C  0.27666631  0.91886694  0.79471109     0.00300
C850        C  0.30005764  0.90678316  0.80870577    -0.11880
C851        C  0.32135748  0.92706025  0.83171092     0.02790
C852        C  0.31700190  0.95763538  0.84298050    -0.11300
H853        H  0.25466349  0.96085466  0.79478306     0.08380
H854        H  0.30358473  0.88239107  0.80102357     0.05910
H855        H  0.33511291  0.97315798  0.86070061     0.05760
C856        C  0.45481347  0.83435367  0.87481347     0.02800
C857        C  0.47188231  0.85234912  0.90059215    -0.13350
C858        C  0.46935766  0.88591896  0.91018892     0.00300
C859        C  0.45140306  0.90162079  0.89372843    -0.11880
C860        C  0.43216990  0.88248033  0.86981203     0.02790
C861        C  0.43505214  0.85036861  0.85972211    -0.11300
H862        H  0.48510079  0.83931545  0.91356692     0.08380
H863        H  0.44905327  0.92705221  0.90063954     0.05910
H864        H  0.41851153  0.83584770  0.84125155     0.05760
C865        C  0.45494120  0.80208044  0.49797927     0.02800
C866        C  0.47374734  0.78509954  0.51306362    -0.13350
C867        C  0.47856172  0.75472150  0.50187381     0.00300
C868        C  0.46223134  0.73826668  0.47670567    -0.11880
C869        C  0.44196900  0.75271603  0.46132877     0.02790
C870        C  0.43814190  0.78501223  0.47192988    -0.11300
H871        H  0.98844694  0.79790719  0.53240743     0.08380
H872        H  0.46660714  0.71449796  0.46881014     0.05910
H873        H  0.42404791  0.79776762  0.45957114     0.05760
C874        C  0.11825572  0.66719075  0.54230037     0.02800
C875        C  0.09699725  0.68190887  0.52760209    -0.13350
C876        C  0.09006397  0.71089015  0.53898070     0.00300
C877        C  0.10617423  0.72804071  0.56407256    -0.11880
C878        C  0.12886882  0.71608609  0.57900076     0.02790
C879        C  0.13483872  0.68506905  0.56822414    -0.11300
H880        H  0.08243491  0.66849741  0.50833780     0.08380
H881        H  0.10020501  0.75071109  0.57207514     0.05910
H882        H  0.15075277  0.67399932  0.58029977     0.05760
C883        C  0.43591296  0.80050576  0.99908601     0.02800
C884        C  0.39987857  0.78601019  0.01382576    -0.13350
C885        C  0.36375229  0.75703284  0.00255977     0.00300
C886        C  0.36261439  0.73957804  0.97760491    -0.11880
C887        C  0.39727694  0.75146644  0.96263467     0.02790
C888        C  0.43442797  0.78250383  0.97324745    -0.11300
H889        H  0.39882666  0.79967082  0.03298458     0.08380
H890        H  0.33385400  0.71690924  0.96964927     0.05910
H891        H  0.46137741  0.79352299  0.96109475     0.05760
C892        C  0.13704573  0.66673322  0.04290904     0.02800
C893        C  0.13762488  0.68391935  0.06895811    -0.13350
C894        C  0.17374286  0.71698413  0.07909839     0.00300
C895        C  0.20819095  0.73206596  0.06329039    -0.11880
C896        C  0.20793344  0.71538122  0.03818406     0.02790
C897        C  0.17259478  0.68436041  0.02739322    -0.11300
H898        H  0.11107398  0.67069156  0.08167367     0.08380
H899        H  0.23634560  0.75625782  0.07095504     0.05910
H900        H  0.17438522  0.67139945  0.00810732     0.05760
C901        C  0.47215443  0.83137553  0.37709252     0.02800
C902        C  0.50914608  0.84531034  0.36386229    -0.13350
C903        C  0.04420660  0.87512833  0.37560054     0.00300
C904        C  0.04343725  0.89389038  0.39948323    -0.11880
C905        C  0.50783004  0.88152428  0.41350724     0.02790
C906        C  0.47159340  0.84996179  0.40226576    -0.11300
H907        H  0.51166060  0.83090741  0.34550589     0.08380
H908        H  0.07156286  0.91750158  0.40762253     0.05910
H909        H  0.44385395  0.83899223  0.41346712     0.05760
C910        C  0.27058664  0.96575587  0.33409274     0.02800
C911        C  0.23507446  0.94876375  0.34962283    -0.13350
C912        C  0.19980773  0.91704362  0.33931078     0.00300
C913        C  0.19941546  0.89920547  0.31462704    -0.11880
C914        C  0.23325406  0.91503978  0.29818979     0.02790
C915        C  0.26946749  0.94836457  0.30802829    -0.11300
H916        H  0.23335358  0.96254326  0.36854193     0.08380
H917        H  0.17132783  0.87445861  0.30735085     0.05910
H918        H  0.29567696  0.96179835  0.29497499     0.05760
C919        C  0.12757504  0.63903476  0.16273324     0.02800
C920        C  0.15265598  0.62691864  0.17502167    -0.13350
C921        C  0.15616504  0.59563061  0.16418884     0.00300
C922        C  0.13367497  0.57442795  0.14182040    -0.11880
C923        C  0.11049329  0.58665867  0.12768157     0.02790
C924        C  0.10673688  0.61899902  0.13833766    -0.11300
H925        H  0.17159572  0.64313381  0.19226405     0.08380
H926        H  0.13636615  0.54934915  0.13456210     0.05910
H927        H  0.08920483  0.62924186  0.12736320     0.05760
C928        C  0.28899057  0.00231723  0.20827172     0.02800
C929        C  0.30579581  0.52014151  0.23408874    -0.13350
C930        C  0.30333482  0.55374896  0.24357572     0.00300
C931        C  0.28631417  0.57007973  0.22682312    -0.11880
C932        C  0.26647783  0.55059764  0.20315534     0.02790
C933        C  0.26893156  0.51811953  0.19326630    -0.11300
H934        H  0.31875240  0.00695301  0.24716785     0.08380
H935        H  0.28461435  0.59595325  0.23355122     0.05910
H936        H  0.25206909  0.00331949  0.17496147     0.05760
C937        C  0.04991086  0.75183101  0.83124825     0.02800
C938        C  0.06369091  0.78884190  0.84439477    -0.13350
C939        C  0.09538675  0.82368063  0.83366176     0.00300
C940        C  0.11587987  0.82244723  0.81083017    -0.11880
C941        C  0.10225875  0.78727930  0.79602795     0.02790
C942        C  0.06926720  0.75123797  0.80644004    -0.11300
H943        H  0.04804347  0.79160094  0.86195496     0.08380
H944        H  0.14108446  0.85023797  0.80350704     0.05910
H945        H  0.05783378  0.72375681  0.79485291     0.05760
C946        C  0.18509838  0.55069402  0.87453073     0.02800
C947        C  0.16926473  0.51451035  0.85986355    -0.13350
C948        C  0.13696304  0.97956433  0.87012675     0.00300
C949        C  0.11741349  0.98025466  0.89363848    -0.11880
C950        C  0.13357395  0.51410641  0.90996105     0.02790
C951        C  0.16716382  0.55013385  0.90019832    -0.11300
H952        H  0.18408549  0.51216278  0.84167875     0.08380
H953        H  0.09173072  0.95258621  0.90065814     0.05910
H954        H  0.18035682  0.57656607  0.91302796     0.05760
C955        C  0.38681669  0.90117746  0.66624585     0.02800
C956        C  0.40296702  0.88195978  0.68181178    -0.13350
C957        C  0.43268514  0.87583084  0.67092851     0.00300
C958        C  0.44940603  0.89124755  0.64559528    -0.11880
C959        C  0.43580279  0.91180723  0.62976879     0.02790
C960        C  0.40404843  0.91684087  0.64001294    -0.11300
H961        H  0.38992647  0.86790330  0.70131232     0.08380
H962        H  0.47265199  0.88590628  0.63794788     0.05910
H963        H  0.39180974  0.93105584  0.62725765     0.05760
C964        C  0.02237935  0.73855637  0.71104668     0.02800
C965        C  0.00658954  0.75896491  0.69646101    -0.13350
C966        C  0.47624719  0.76377658  0.70768386     0.00300
C967        C  0.45891737  0.74620715  0.73242830    -0.11880
C968        C  0.47222894  0.72445943  0.74728398     0.02790
C969        C  0.00441401  0.72053557  0.73666054    -0.11300
H970        H  0.02007643  0.77453830  0.67744812     0.08380
H971        H  0.43519231  0.75059625  0.74034999     0.05910
H972        H  0.01627641  0.70523499  0.74863316     0.05760
C973        C  0.25935379  0.65936077  0.49809760     0.02800
C974        C  0.27720472  0.65861326  0.47375650    -0.13350
C975        C  0.26577195  0.62277831  0.46026781     0.00300
C976        C  0.23463143  0.58644923  0.47182484    -0.11880
C977        C  0.21609116  0.58707148  0.49702694     0.02790
C978        C  0.23011007  0.62414793  0.51020928    -0.11300
H979        H  0.30016291  0.68686695  0.46523678     0.08380
H980        H  0.22405784  0.55853921  0.46091006     0.05910
H981        H  0.21622357  0.62657158  0.52887096     0.05760
C982        C  0.35065964  0.88566330  0.54042407     0.02800
C983        C  0.33250974  0.85108353  0.52401156    -0.13350
C984        C  0.30198269  0.81506689  0.53449729     0.00300
C985        C  0.28594196  0.81319045  0.56021679    -0.11880
C986        C  0.30140856  0.84672725  0.57689512     0.02790
C987        C  0.33419023  0.88346900  0.56704824    -0.11300
H988        H  0.34497256  0.85043183  0.50422162     0.08380
H989        H  0.26212761  0.78455803  0.56763092     0.05910
H990        H  0.34789623  0.90927053  0.58045180     0.05760
C991        C  0.22177868  0.56971194  0.00043060     0.02800
C992        C  0.23922366  0.55234800  0.01665617    -0.13350
C993        C  0.26942919  0.54665963  0.00606888     0.00300
C994        C  0.28538079  0.56093632  0.98035080    -0.11880
C995        C  0.27038289  0.57959374  0.96388064     0.02790
C996        C  0.23824439  0.58415153  0.97386708    -0.11300
H997        H  0.22670845  0.53910793  0.03644454     0.08380
H998        H  0.30894767  0.55598158  0.97284523     0.05910
H999        H  0.22504915  0.59693209  0.96063195     0.05760
C1000       C  0.35773616  0.90691082  0.04408237     0.02800
C1001       C  0.34362576  0.92956389  0.03047352    -0.13350
C1002       C  0.31448028  0.93563942  0.04240406     0.00300
C1003       C  0.29698891  0.91771277  0.06703322    -0.11880
C1004       C  0.30853866  0.89377762  0.08093102     0.02790
C1005       C  0.33943862  0.88832718  0.06952596    -0.11300
H1006       H  0.35732914  0.94544150  0.01158994     0.08380
H1007       H  0.27412363  0.92307370  0.07541922     0.05910
H1008       H  0.35000275  0.87121804  0.08071663     0.05760
C1009       C  0.18784175  0.56840694  0.37641671     0.02800
C1010       C  0.17099003  0.58759172  0.36160939    -0.13350
C1011       C  0.13771426  0.58837093  0.37159843     0.00300
C1012       C  0.11856461  0.56772562  0.39514709    -0.11880
C1013       C  0.13565334  0.55119597  0.41170336     0.02790
C1014       C  0.17005732  0.55038613  0.40210706    -0.11300
H1015       H  0.18548300  0.60504637  0.34339130     0.08380
H1016       H  0.09216889  0.56835136  0.40195465     0.05910
H1017       H  0.18377494  0.53776680  0.41498070     0.05760
C1018       C  0.05160925  0.73023519  0.33112152     0.02800
C1019       C  0.06291227  0.70461365  0.34379031    -0.13350
C1020       C  0.09387564  0.70014996  0.33317517     0.00300
C1021       C  0.11572653  0.72251012  0.31088630    -0.11880
C1022       C  0.10382965  0.74544931  0.29619988     0.02790
C1023       C  0.07182191  0.75007484  0.30649983    -0.11300
H1024       H  0.04622090  0.68596650  0.36106779     0.08380
H1025       H  0.14067581  0.71945072  0.30387672     0.05910
H1026       H  0.06190618  0.76753280  0.29504664     0.05760
C1027       C  0.46901463  0.67897451  0.24458077     0.02800
C1028       C  0.45571431  0.64420199  0.22949819    -0.13350
C1029       C  0.47744365  0.64326032  0.20733911     0.00300
C1030       C  0.00940677  0.67852084  0.19701175    -0.11880
C1031       C  0.02193898  0.71555000  0.20991687     0.02790
C1032       C  0.00196041  0.71541016  0.23453966    -0.11300
H1033       H  0.43004202  0.61640781  0.23633916     0.08380
H1034       H  0.02597659  0.67625711  0.17984588     0.05910
H1035       H  0.01282351  0.74272577  0.24624929     0.05760
C1036       C  0.38606129  0.91767861  0.16435874     0.02800
C1037       C  0.40281368  0.95397955  0.17886181    -0.13350
C1038       C  0.43630609  0.98805316  0.16889702     0.00300
C1039       C  0.45579710  0.98626652  0.14570347    -0.11880
C1040       C  0.43874834  0.95227765  0.12942339     0.02790
C1041       C  0.40414294  0.91707157  0.13900559    -0.11300
H1042       H  0.38808398  0.95715592  0.19680430     0.08380
H1043       H  0.48235307  0.01331075  0.13886323     0.05910
H1044       H  0.39046796  0.89049960  0.12632663     0.05760
C1045       C  0.28788823  0.75144455  0.33225711     0.02800
C1046       C  0.30939865  0.78753439  0.34693561    -0.13350
C1047       C  0.31651013  0.82356276  0.33555113     0.00300
C1048       C  0.30033877  0.82460588  0.31051888    -0.11880
C1049       C  0.27770936  0.78986631  0.29555759     0.02790
C1050       C  0.27149191  0.75276826  0.30631768    -0.11300
H1051       H  0.32401498  0.78871222  0.36617855     0.08380
H1052       H  0.30637634  0.85335597  0.30253645     0.05910
H1053       H  0.25561989  0.72576453  0.29419998     0.05760
C1054       C  0.45156474  0.55077053  0.37631823     0.02800
C1055       C  0.43280763  0.51506104  0.36103229    -0.13350
C1056       C  0.42836282  0.97972738  0.37186182     0.00300
C1057       C  0.44491890  0.97938077  0.39689881    -0.11880
C1058       C  0.46482223  0.51390026  0.41255764     0.02790
C1059       C  0.46836930  0.55017260  0.40229381    -0.11300
H1060       H  0.41788178  0.51326575  0.34181064     0.08380
H1061       H  0.44082516  0.95116334  0.40455264     0.05910
H1062       H  0.48232782  0.57687957  0.41483002     0.05760
C1063       C  0.28636525  0.71719094  0.70902036     0.02800
C1064       C  0.27154677  0.68246137  0.69284289    -0.13350
C1065       C  0.26011350  0.64534135  0.70506180     0.00300
C1066       C  0.27064067  0.64427793  0.73231322    -0.11880
C1067       C  0.29373020  0.67912012  0.74720670     0.02790
C1068       C  0.30018622  0.71597823  0.73597886    -0.11300
H1069       H  0.26519039  0.68369551  0.67137627     0.08380
H1070       H  0.26141000  0.61554868  0.74180946     0.05910
H1071       H  0.31413345  0.74276802  0.74842887     0.05760
C1072       C  0.11615641  0.91623925  0.66769495     0.02800
C1073       C  0.13030471  0.95030505  0.68452454    -0.13350
C1074       C  0.14195003  0.98786336  0.67293317     0.00300
C1075       C  0.13246289  0.99012872  0.64558241    -0.11880
C1076       C  0.11051527  0.95601370  0.62985992     0.02790
C1077       C  0.10374528  0.91872361  0.64052683    -0.11300
H1078       H  0.13665299  0.94852054  0.70594535     0.08380
H1079       H  0.14184512  0.51918386  0.63656592     0.05910
H1080       H  0.09072662  0.89256171  0.62744396     0.05760
C1081       C  0.43537121  0.56365623  0.49722493     0.02800
C1082       C  0.39902254  0.54290604  0.51169752    -0.13350
C1083       C  0.36432180  0.54006104  0.50122734     0.00300
C1084       C  0.36508796  0.55982836  0.47743545    -0.11880
C1085       C  0.39974769  0.57985961  0.46192080     0.02790
C1086       C  0.43559786  0.58241517  0.47192280    -0.11300
H1087       H  0.39642756  0.52586686  0.53005621     0.08380
H1088       H  0.33734334  0.55721393  0.47020034     0.05910
H1089       H  0.46257238  0.59710520  0.45967108     0.05760
C1090       C  0.13664876  0.90152124  0.54258718     0.02800
C1091       C  0.17280840  0.92361708  0.52808599    -0.13350
C1092       C  0.20848680  0.92921553  0.53891529     0.00300
C1093       C  0.20906323  0.91074465  0.56304457    -0.11880
C1094       C  0.17460668  0.88926511  0.57847725     0.02790
C1095       C  0.13777550  0.88422335  0.56821661    -0.11300
H1096       H  0.17433752  0.93967932  0.50944021     0.08380
H1097       H  0.23749289  0.91529180  0.57046703     0.05910
H1098       H  0.11090244  0.86864810  0.58051124     0.05760
C1099       C  0.30294040  0.73252858  0.20753004     0.02800
C1100       C  0.33838984  0.75137974  0.19193126    -0.13350
C1101       C  0.37426938  0.75743764  0.20289103     0.00300
C1102       C  0.37539081  0.74215724  0.22833926    -0.11880
C1103       C  0.34114587  0.72186604  0.24418048     0.02790
C1104       C  0.30441415  0.71698882  0.23384882    -0.11300
H1105       H  0.33950465  0.76538963  0.17239994     0.08380
H1106       H  0.40393065  0.74745825  0.23610584     0.05910
H1107       H  0.27794357  0.70306486  0.24664518     0.05760
C1108       C  0.10251410  0.89711073  0.16452642     0.02800
C1109       C  0.10264118  0.91480428  0.13872269    -0.13350
C1110       C  0.06640748  0.91015521  0.12764871     0.00300
C1111       C  0.03112272  0.88794453  0.14225989    -0.11880
C1112       C  0.03075853  0.87075078  0.16721424     0.02790
C1113       C  0.06603975  0.87629922  0.17885159    -0.11300
H1114       H  0.13001197  0.93042578  0.12694301     0.08380
H1115       H  0.00294480  0.88298612  0.13400740     0.05910
H1116       H  0.06391000  0.86094907  0.19797045     0.05760
C1117       C  0.45458324  0.58401165  0.99915546     0.02800
C1118       C  0.47731655  0.62052567  0.01309329    -0.13350
C1119       C  0.48051066  0.65576864  0.00305114     0.00300
C1120       C  0.45914188  0.65525954  0.98016067    -0.11880
C1121       C  0.43895183  0.62097326  0.96436360     0.02790
C1122       C  0.43579284  0.58458400  0.97409078    -0.11300
H1123       H  0.99540393  0.62264209  0.03069968     0.08380
H1124       H  0.46151956  0.68313084  0.97334260     0.05910
H1125       H  0.42058978  0.55772560  0.96176321     0.05760
C1126       C  0.11732970  0.88325782  0.04370287     0.02800
C1127       C  0.13700584  0.88426756  0.06871431    -0.13350
C1128       C  0.13517790  0.84877643  0.07887997     0.00300
C1129       C  0.11581162  0.81397335  0.06347959    -0.11880
C1130       C  0.09365328  0.81194198  0.04071706     0.02790
C1131       C  0.09528976  0.84624570  0.03026246    -0.11300
H1132       H  0.15179283  0.91152921  0.08065845     0.08380
H1133       H  0.11465810  0.78675646  0.07055734     0.05910
H1134       H  0.07673118  0.84300469  0.01267898     0.05760
C1135       C  0.26945775  0.73174293  0.83170958     0.02800
C1136       C  0.23346238  0.71203226  0.84661462    -0.13350
C1137       C  0.19844653  0.70794302  0.83574329     0.00300
C1138       C  0.19851899  0.72560640  0.81107368    -0.11880
C1139       C  0.23311374  0.74559643  0.79547445     0.02790
C1140       C  0.26923064  0.74911715  0.80585426    -0.11300
H1141       H  0.23128288  0.69627386  0.86554864     0.08380
H1142       H  0.17044688  0.72177511  0.80346163     0.05910
H1143       H  0.29608494  0.76339731  0.79346246     0.05760
C1144       C  0.47057039  0.56811365  0.87550026     0.02800
C1145       C  0.00639717  0.58924682  0.86046596    -0.13350
C1146       C  0.04232879  0.59534052  0.87121893     0.00300
C1147       C  0.04353957  0.57854520  0.89601706    -0.11880
C1148       C  0.00920266  0.55693344  0.91160130     0.02790
C1149       C  0.47217975  0.55156661  0.90137845    -0.11300
H1150       H  0.00753913  0.60440890  0.84145685     0.08380
H1151       H  0.07218369  0.58384813  0.90356320     0.05910
H1152       H  0.44548962  0.53625752  0.91387920     0.05760
O1153       O  0.37976760  0.58741287  0.78500116    -0.80460
O1154       O  0.24620484  0.61264859  0.88284747    -0.82020
O1155       O  0.28722755  0.52916399  0.82419187    -0.79040
O1156       O  0.29541171  0.63966162  0.78487673    -0.77420
O1157       O  0.34297707  0.70606329  0.78232243    -0.79210
O1158       O  0.31457113  0.52172970  0.86384149    -0.80150
O1159       O  0.23919173  0.57888781  0.84281352    -0.81470
O1160       O  0.31345609  0.56861638  0.78246014    -0.81760
Eu1161     Eu  0.30570382  0.60056307  0.82249781     2.39200
O1162       O  0.32015322  0.66319667  0.83832362    -0.89270
O1163       O  0.35601320  0.58794769  0.83866274    -0.92870
C1164       C  0.34454060  0.56844011  0.77357786     1.01820
C1165       C  0.22529367  0.58405028  0.86573816     1.01630
C1166       C  0.29652116  0.50867124  0.84047741     1.01580
C1167       C  0.31129485  0.67504541  0.77349125     0.99440
H1168       H  0.28311100  0.57627284  0.87815952     0.29190
O1169       O  0.30693376  0.59890111  0.87093529    -1.01660
H1170       H  0.36925066  0.65011504  0.78690580     0.29220
O1171       O  0.36930257  0.65010969  0.80674283    -1.04200
O1172       O  0.35751737  0.71016117  0.92515614    -0.81430
O1173       O  0.49008306  0.68840195  0.82449766    -0.80960
O1174       O  0.30964955  0.57873082  0.92586490    -0.79400
O1175       O  0.33213863  0.73404619  0.82454286    -0.82740
O1176       O  0.43202602  0.72276890  0.78499236    -0.80600
O1177       O  0.40765895  0.56539415  0.88371303    -0.79240
O1178       O  0.43892014  0.66090147  0.92635669    -0.80770
O1179       O  0.45516276  0.77305946  0.88335114    -0.82690
O1180       O  0.39338390  0.59370324  0.92777594    -0.79430
O1181       O  0.42897560  0.78019413  0.84304034    -0.82100
O1182       O  0.28832723  0.62436226  0.92693395    -0.77840
O1183       O  0.44037917  0.59108298  0.84311387    -0.77870
O1184       O  0.45073236  0.67529723  0.78229517    -0.77520
O1185       O  0.29667092  0.70527095  0.86373372    -0.81010
O1186       O  0.42442070  0.73143541  0.92701140    -0.80440
O1187       O  0.49728568  0.72299186  0.86415218    -0.78760
Eu1188     Eu  0.31880972  0.66234183  0.88640987     2.39770
Eu1189     Eu  0.41867649  0.63601143  0.82271793     2.39570
Eu1190     Eu  0.35670181  0.58688576  0.88676652     2.38400
Eu1191     Eu  0.38336037  0.71365937  0.82242743     2.39880
Eu1192     Eu  0.43198987  0.70034486  0.88685398     2.39790
O1193       O  0.43124451  0.69907170  0.83869210    -0.93180
O1194       O  0.36897461  0.64977983  0.90181456    -0.92070
C1195       C  0.39295802  0.73020108  0.93639493     1.01990
C1196       C  0.01064175  0.71792681  0.84093486     1.00710
C1197       C  0.29000617  0.59462579  0.93690646     1.00100
C1198       C  0.30251258  0.72488807  0.84092908     1.02110
C1199       C  0.45107957  0.70674106  0.77346334     1.01030
C1200       C  0.43609878  0.57302640  0.86644736     0.99880
C1201       C  0.42301826  0.62532425  0.93765959     0.99930
C1202       C  0.44783055  0.79406802  0.86609397     1.02550
H1203       H  0.44291293  0.63796313  0.87846543     0.29920
O1204       O  0.42015202  0.63866544  0.87116966    -1.05340
H1205       H  0.38187909  0.73595297  0.87795238     0.31970
O1206       O  0.38072129  0.71217342  0.87082492    -1.07900
O1207       O  0.46845764  0.92511369  0.94829984    -0.80460
O1208       O  0.11998387  0.94612651  0.05042901    -0.82020
O1209       O  0.09561017  0.97407736  0.94843899    -0.79040
O1210       O  0.49902355  0.86094899  0.99104249    -0.77420
O1211       O  0.46645621  0.85316539  0.03174044    -0.79210
O1212       O  0.11737061  0.54128906  0.94736256    -0.80150
O1213       O  0.09266976  0.91123698  0.01083389    -0.81470
O1214       O  0.51368658  0.90330906  0.94726299    -0.81760
Eu1215     Eu  0.05010561  0.93378497  0.98804513     2.39200
O1216       O  0.05089165  0.93498883  0.03609352    -0.89270
O1217       O  0.03788510  0.98448484  0.97322306    -0.92870
C1218       C  0.48435344  0.90544521  0.93717070     1.01820
C1219       C  0.11117552  0.91658713  0.03405331     1.01630
C1220       C  0.11489562  0.00970220  0.93718051     1.01580
C1221       C  0.47061662  0.83974690  0.00830718     0.99440
H1222       H  0.12361013  0.99714042  0.99643488     0.29190
O1223       O  0.09988726  0.99589357  0.00373911    -1.01660
H1224       H  0.46368758  0.89773066  0.99609874     0.29220
O1225       O  0.48645397  0.92133159  0.00337159    -1.04200
O1226       O  0.10845604  0.54632149  0.08992687    -0.81430
O1227       O  0.45259640  0.52158018  0.99085692    -0.80960
O1228       O  0.16053945  0.57007904  0.99189847    -0.79400
O1229       O  0.02814006  0.91141836  0.08945274    -0.82740
O1230       O  0.41706209  0.90248372  0.05034968    -0.80600
O1231       O  0.04908311  0.55617769  0.94940483    -0.79240
O1232       O  0.07495371  0.60497226  0.05043031    -0.80770
O1233       O  0.47602620  0.49164948  0.09086973    -0.82690
O1234       O  0.11004454  0.61283516  0.01093224    -0.79430
O1235       O  0.45740526  0.92522384  0.09292056    -0.82100
O1236       O  0.16761165  0.54373311  0.03214278    -0.77840
O1237       O  0.98221817  0.50990414  0.94749256    -0.77870
O1238       O  0.40928061  0.92906516  0.01044183    -0.77520
O1239       O  0.09418951  0.95954827  0.09271466    -0.81010
O1240       O  0.06080717  0.56466267  0.09309163    -0.80440
O1241       O  0.47746122  0.55385379  0.03169228    -0.78760
Eu1242     Eu  0.10091496  0.99836608  0.05217922     2.39770
Eu1243     Eu  0.47472743  0.97133351  0.98778077     2.39570
Eu1244     Eu  0.08796319  0.54758358  0.98848638     2.38400
Eu1245     Eu  0.48813492  0.91987162  0.05174728     2.39880
Eu1246     Eu  0.02283706  0.53285178  0.05240379     2.39790
O1247       O  0.47519708  0.97024297  0.03596268    -0.93180
O1248       O  0.08650833  0.54677605  0.03664043    -0.92070
C1249       C  0.09226590  0.56506921  0.10175343     1.01990
C1250       C  0.45983091  0.54975545  0.00820676     1.00710
C1251       C  0.18150860  0.56265253  0.00911065     1.00100
C1252       C  0.06311556  0.92778088  0.10132341     1.02110
C1253       C  0.39634855  0.91131922  0.03396120     1.01030
C1254       C  0.01364851  0.54035948  0.93806011     0.99880
C1255       C  0.10428491  0.62620121  0.03388213     0.99930
C1256       C  0.45780681  0.95626597  0.10242064     1.02550
H1257       H  0.02514449  0.55741173  0.99690474     0.29920
O1258       O  0.02596141  0.53458728  0.00402449    -1.05340
H1259       H  0.03739342  0.98323464  0.08741967     0.31970
O1260       O  0.03726914  0.98348443  0.06759212    -1.07900
O1261       O  0.44193004  0.71386414  0.42313966    -0.80460
O1262       O  0.28488266  0.68841028  0.32441794    -0.82020
O1263       O  0.40822868  0.77187007  0.38334614    -0.79040
O1264       O  0.30680665  0.66067326  0.42249396    -0.77420
O1265       O  0.28816141  0.59451351  0.42619834    -0.79210
O1266       O  0.44345647  0.77912886  0.34398727    -0.80150
O1267       O  0.31049843  0.72140501  0.36488581    -0.81470
O1268       O  0.39402653  0.73196898  0.42575974    -0.81760
Eu1269     Eu  0.35577168  0.70028745  0.38508708     2.39200
O1270       O  0.30764061  0.63740385  0.36943318    -0.89270
O1271       O  0.41911128  0.71350365  0.36927638    -0.92870
C1272       C  0.42537520  0.73241643  0.43474427     1.01820
C1273       C  0.29247542  0.71692861  0.34157696     1.01630
C1274       C  0.43811573  0.79243254  0.36712156     1.01580
C1275       C  0.28762417  0.62574630  0.43445752     0.99440
H1276       H  0.35754434  0.72430961  0.32949352     0.29190
O1277       O  0.35841632  0.70156438  0.33672903    -1.01660
H1278       H  0.36987584  0.65133191  0.42087536     0.29220
O1279       O  0.36993002  0.65110799  0.40104408    -1.04200
O1280       O  0.30132572  0.59214929  0.28175941    -0.81430
O1281       O  0.45292196  0.61317331  0.38369093    -0.80960
O1282       O  0.38099572  0.72178248  0.28212993    -0.79400
O1283       O  0.24886701  0.56751636  0.38377989    -0.82740
O1284       O  0.36077448  0.57998179  0.42389968    -0.80600
O1285       O  0.49259524  0.73502170  0.32378514    -0.79240
O1286       O  0.42872093  0.63971083  0.28261133    -0.80770
O1287       O  0.33214792  0.52745888  0.32550606    -0.82690
O1288       O  0.44999519  0.70672601  0.28032669    -0.79430
O1289       O  0.29870850  0.52028342  0.36572449    -0.82100
O1290       O  0.31394524  0.67598450  0.28074727    -0.77840
O1291       O  0.50022817  0.71025913  0.36463583    -0.77870
O1292       O  0.42712576  0.62774629  0.42629120    -0.77520
O1293       O  0.24151695  0.59496913  0.34412912    -0.81010
O1294       O  0.34640206  0.57014163  0.28113839    -0.80440
O1295       O  0.42558648  0.57833324  0.34413700    -0.78760
Eu1296     Eu  0.30684361  0.63791700  0.32128390     2.39770
Eu1297     Eu  0.43359919  0.66548624  0.38544533     2.39570
Eu1298     Eu  0.42025420  0.71385755  0.32115987     2.38400
Eu1299     Eu  0.32039670  0.58720754  0.38588566     2.39880
Eu1300     Eu  0.38219397  0.60022341  0.32201709     2.39790
O1301       O  0.38313421  0.60167507  0.37013175    -0.93180
O1302       O  0.36980995  0.65053553  0.30657018    -0.92070
C1303       C  0.31745972  0.57263356  0.27075810     1.01990
C1304       C  0.44452678  0.58385154  0.36715592     1.00710
C1305       C  0.34546036  0.70600790  0.27096695     1.00100
C1306       C  0.22806362  0.57597880  0.36722357     1.02110
C1307       C  0.39601199  0.59657137  0.43543471     1.01030
C1308       C  0.51343106  0.72728362  0.34091356     0.99880
C1309       C  0.44829016  0.67504381  0.27096465     0.99930
C1310       C  0.30372446  0.50634961  0.34273367     1.02550
H1311       H  0.45515818  0.66270252  0.32987697     0.29920
O1312       O  0.43182399  0.66226414  0.33714307    -1.05340
H1313       H  0.29616032  0.56433038  0.33015099     0.31970
O1314       O  0.31872867  0.58814244  0.33739909    -1.07900
O1315       O  0.24512351  0.93583917  0.71850434    -0.80460
O1316       O  0.26192438  0.80614420  0.61504143    -0.82020
O1317       O  0.32611060  0.90251931  0.65795636    -0.79040
O1318       O  0.21446254  0.88867699  0.61617615    -0.77420
O1319       O  0.14737336  0.84321823  0.61480121    -0.79210
O1320       O  0.33313741  0.87641215  0.69834722    -0.80150
O1321       O  0.28394866  0.87337703  0.61417622    -0.81470
O1322       O  0.27823770  0.94563349  0.67787997    -0.81760
Eu1323     Eu  0.25375210  0.88048265  0.65497253     2.39200
O1324       O  0.20300481  0.81788663  0.63980114    -0.89270
O1325       O  0.25170169  0.87852345  0.70302021    -0.92870
C1326       C  0.27361491  0.95773593  0.70167964     1.01820
C1327       C  0.28185398  0.84189193  0.60401328     1.01630
C1328       C  0.34695874  0.89495464  0.67515801     1.01580
C1329       C  0.17894151  0.87305526  0.60502595     0.99440
H1330       H  0.28881481  0.82962511  0.66294058     0.29190
O1331       O  0.26529516  0.82873775  0.67030437    -1.01660
H1332       H  0.19092401  0.89187422  0.66399244     0.29220
O1333       O  0.19210586  0.86917570  0.67101135    -1.04200
O1334       O  0.16086881  0.69661094  0.65651671    -0.81430
O1335       O  0.14152544  0.82598108  0.75776919    -0.80960
O1336       O  0.28679621  0.77915291  0.71594554    -0.79400
O1337       O  0.13095656  0.75763120  0.61661519    -0.82740
O1338       O  0.11718833  0.85523263  0.65942746    -0.80600
O1339       O  0.27455770  0.87879661  0.75666100    -0.79240
O1340       O  0.19398871  0.74542036  0.75727731    -0.80770
O1341       O  0.08251875  0.73565305  0.71794370    -0.82690
O1342       O  0.26040220  0.79292883  0.75947412    -0.79430
O1343       O  0.07533751  0.76346778  0.67843822    -0.82100
O1344       O  0.25724638  0.74285276  0.67721501    -0.77840
O1345       O  0.22705844  0.89738050  0.76020538    -0.77870
O1346       O  0.14473626  0.88959390  0.69916667    -0.77520
O1347       O  0.17644664  0.73621543  0.61446976    -0.81010
O1348       O  0.12959869  0.68708874  0.69798909    -0.80440
O1349       O  0.12287907  0.75969690  0.76057456    -0.78760
Eu1350     Eu  0.21530461  0.76718361  0.65465388     2.39770
Eu1351     Eu  0.18899690  0.86627264  0.71948250     2.39570
Eu1352     Eu  0.26656456  0.83070710  0.71870180     2.38400
Eu1353     Eu  0.14040806  0.80586341  0.65543838     2.39880
Eu1354     Eu  0.15371081  0.75345879  0.71938665     2.39790
O1355       O  0.14083365  0.80388993  0.70359233    -0.93180
O1356       O  0.21609412  0.76706014  0.70297099    -0.92070
C1357       C  0.13269214  0.67507037  0.67372232     1.01990
C1358       C  0.12292547  0.79084231  0.76959466     1.00710
C1359       C  0.27780895  0.74937502  0.69969955     1.00100
C1360       C  0.14613018  0.73747131  0.60524062     1.02110
C1361       C  0.12472348  0.88382928  0.67649079     1.01030
C1362       C  0.25848020  0.89754053  0.76870654     0.99880
C1363       C  0.22928069  0.76190179  0.76875973     0.99930
C1364       C  0.06192339  0.74466805  0.70156580     1.02550
H1365       H  0.20349396  0.81675731  0.75451647     0.29920
O1366       O  0.20329775  0.81683047  0.73468844    -1.05340
H1367       H  0.12910241  0.73424098  0.66405794     0.31970
O1368       O  0.15286969  0.75688819  0.67117641    -1.07900
O1369       O  0.21303362  0.75591733  0.11724394    -0.80460
O1370       O  0.08173956  0.77909856  0.21739880    -0.82020
O1371       O  0.12257516  0.69804763  0.15670674    -0.79040
O1372       O  0.13432570  0.81006684  0.11742707    -0.77420
O1373       O  0.18233797  0.87639138  0.11482683    -0.79210
O1374       O  0.14925672  0.69012943  0.19650793    -0.80150
O1375       O  0.07408713  0.74644485  0.17672115    -0.81470
O1376       O  0.14681189  0.73740958  0.11497009    -0.81760
Eu1377     Eu  0.14070348  0.76925322  0.15566531     2.39200
O1378       O  0.15524965  0.83177093  0.17187142    -0.89270
O1379       O  0.19079406  0.75604705  0.17147458    -0.92870
C1380       C  0.17774458  0.73723055  0.10576141     1.01820
C1381       C  0.06080520  0.75041745  0.20032978     1.01630
C1382       C  0.13153571  0.67734320  0.17299573     1.01580
C1383       C  0.15131405  0.84526022  0.10564361     0.99440
H1384       H  0.11915570  0.74444455  0.21125465     0.29190
O1385       O  0.14255877  0.76749996  0.20403594    -1.01660
H1386       H  0.20463056  0.81885416  0.12031743     0.29220
O1387       O  0.20443221  0.81860598  0.14014763    -1.04200
O1388       O  0.19333100  0.87653056  0.25975061    -0.81430
O1389       O  0.32504528  0.85533930  0.15724159    -0.80960
O1390       O  0.14488988  0.74724576  0.25859697    -0.79400
O1391       O  0.16572147  0.90029354  0.15787195    -0.82740
O1392       O  0.26786588  0.89119129  0.11873661    -0.80600
O1393       O  0.24127075  0.73193339  0.21600685    -0.79240
O1394       O  0.27655642  0.82962431  0.25800959    -0.80770
O1395       O  0.29015029  0.94134253  0.21653428    -0.82690
O1396       O  0.23054114  0.76262341  0.25984221    -0.79430
O1397       O  0.26404946  0.94865687  0.17628912    -0.82100
O1398       O  0.12374337  0.79295155  0.26066829    -0.77840
O1399       O  0.27439782  0.75803495  0.17559111    -0.77870
O1400       O  0.28579678  0.84324682  0.11511091    -0.77520
O1401       O  0.13092307  0.87292442  0.19754142    -0.81010
O1402       O  0.26036628  0.89807167  0.26082223    -0.80440
O1403       O  0.33217915  0.89116609  0.19624298    -0.78760
Eu1404     Eu  0.15413398  0.83060504  0.22006992     2.39770
Eu1405     Eu  0.25337079  0.80371780  0.15532352     2.39570
Eu1406     Eu  0.19198543  0.75517206  0.21957685     2.38400
Eu1407     Eu  0.21879248  0.88210506  0.15606684     2.39880
Eu1408     Eu  0.26750887  0.86864287  0.21958108     2.39790
O1409       O  0.26662739  0.86706995  0.17149349    -0.93180
O1410       O  0.20462994  0.81806909  0.23476954    -0.92070
C1411       C  0.22886834  0.89593714  0.27097863     1.01990
C1412       C  0.34573543  0.88511611  0.17347435     1.00710
C1413       C  0.12516882  0.76279625  0.27004852     1.00100
C1414       C  0.13617324  0.89146503  0.17430076     1.02110
C1415       C  0.28673130  0.87520441  0.10682425     1.01030
C1416       C  0.26951300  0.73922579  0.19869290     0.99880
C1417       C  0.26091882  0.79410861  0.26924013     0.99930
C1418       C  0.28262929  0.96236163  0.19940317     1.02550
H1419       H  0.27783600  0.80537916  0.21071183     0.29920
O1420       O  0.25524634  0.80668915  0.20372384    -1.05340
H1421       H  0.21717519  0.90437017  0.21183503     0.31970
O1422       O  0.21604472  0.88071694  0.20446766    -1.07900
O1423       O  0.02290207  0.54512644  0.58996693    -0.80460
O1424       O  0.15670426  0.52289306  0.49110300    -0.82020
O1425       O  0.10936925  0.49655134  0.59236822    -0.79040
O1426       O  0.12110131  0.60709003  0.55018824    -0.77420
O1427       O  0.09569009  0.61427714  0.50951293    -0.79210
O1428       O  0.06372756  0.92937080  0.59362258    -0.80150
O1429       O  0.16409621  0.55824494  0.53039455    -0.81470
O1430       O  0.08969682  0.56638086  0.59290102    -0.81760
Eu1431     Eu  0.09892635  0.53454646  0.55351826     2.39200
O1432       O  0.09869325  0.53295834  0.50527490    -0.89270
O1433       O  0.03573539  0.98375520  0.56862127    -0.92870
C1434       C  0.05804591  0.56573332  0.60134488     1.01820
C1435       C  0.17731313  0.55288776  0.50722320     1.01630
C1436       C  0.09408326  0.96080126  0.60328176     1.01580
C1437       C  0.11349897  0.62793447  0.53295382     0.99440
H1438       H  0.10954767  0.97170353  0.54507390     0.29190
O1439       O  0.08684035  0.97264160  0.53793770    -1.01660
H1440       H  0.04811999  0.56911560  0.54363621     0.29220
O1441       O  0.04735490  0.54538078  0.53684501    -1.04200
O1442       O  0.04569040  0.92119248  0.45175975    -0.81430
O1443       O  0.41257694  0.94680969  0.54907578    -0.80960
O1444       O  0.07371765  0.89851689  0.55061322    -0.79400
O1445       O  0.09813766  0.55334778  0.45013055    -0.82740
O1446       O  0.49834958  0.56624254  0.49013893    -0.80600
O1447       O  0.47602608  0.91194693  0.59216602    -0.79240
O1448       O  0.45281925  0.86262431  0.49098029    -0.80770
O1449       O  0.46481574  0.97461707  0.45069551    -0.82690
O1450       O  0.48153667  0.85579340  0.53013270    -0.79430
O1451       O  0.51269986  0.54100585  0.44808411    -0.82100
O1452       O  0.10663714  0.92432324  0.51009734    -0.77840
O1453       O  0.45480014  0.95761634  0.59314250    -0.77870
O1454       O  0.46288697  0.53790175  0.52939618    -0.77520
O1455       O  0.11676096  0.50566611  0.44854060    -0.81010
O1456       O  0.97966135  0.90278925  0.44820288    -0.80440
O1457       O  0.40564313  0.91306558  0.50908853    -0.78760
Eu1458     Eu  0.08538233  0.96940415  0.48964517     2.39770
Eu1459     Eu  0.48531074  0.99564511  0.55240427     2.39570
Eu1460     Eu  0.02363311  0.92083345  0.55353274     2.38400
Eu1461     Eu  0.05105644  0.54745348  0.48855495     2.39880
Eu1462     Eu  0.47242505  0.93422905  0.48879144     2.39790
O1463       O  0.48740841  0.99705978  0.50432389    -0.93180
O1464       O  0.02257766  0.92137826  0.50535016    -0.92070
C1465       C  0.01086041  0.90249467  0.43970659     1.01990
C1466       C  0.39151948  0.91843440  0.53188914     1.00710
C1467       C  0.10224945  0.90629959  0.53343886     1.00100
C1468       C  0.11647335  0.53627610  0.43879922     1.02110
C1469       C  0.46860981  0.55711262  0.50645528     1.01030
C1470       C  0.45619959  0.92768510  0.60308559     0.99880
C1471       C  0.46196522  0.84207069  0.50731302     0.99930
C1472       C  0.48137740  0.00993734  0.43909662     1.02550
H1473       H  0.44950638  0.90987498  0.54434475     0.29920
O1474       O  0.47357264  0.93234912  0.53723206    -1.05340
H1475       H  0.03634734  0.98330035  0.45366549     0.31970
O1476       O  0.03631736  0.98351787  0.47349322    -1.07900
C1477       C  0.09927045  0.66414386  0.87031757    -0.02180
C1478       C  0.08043638  0.62503759  0.85956968     0.07500
C1479       C  0.10094763  0.61269293  0.84209434    -0.02290
C1480       C  0.14078072  0.63959618  0.83545837    -0.02300
C1481       C  0.15977585  0.67848049  0.84664122     0.07630
C1482       C  0.13929297  0.69084443  0.86409835    -0.02490
Br1483     Br  0.16627229  0.74413254  0.87936408    -0.01040
Br1484     Br  0.07020333  0.68082004  0.89371149    -0.01110
Br1485     Br  0.16919896  0.62360542  0.81065908    -0.01070
Br1486     Br  0.07434727  0.55905007  0.82751619    -0.01060
C1487       C  0.00671980  0.70671795  0.03994246    -0.02180
C1488       C  0.01079566  0.69470630  0.01356715     0.07500
C1489       C  0.04212528  0.72117771  0.99598454    -0.02290
C1490       C  0.06872124  0.76018669  0.00451579    -0.02300
C1491       C  0.06426077  0.77237285  0.03071178     0.07630
C1492       C  0.03320027  0.74581348  0.04844267    -0.02490
Br1493     Br  0.02569815  0.76318233  0.08403037    -0.01040
Br1494     Br  0.96437830  0.67009184  0.06409724    -0.01110
Br1495     Br  0.11165182  0.79660367  0.98060876    -0.01070
Br1496     Br  0.04954310  0.70394840  0.96040866    -0.01060
C1497       C  0.43744457  0.77288784  0.18018267    -0.02180
C1498       C  0.41258027  0.78632140  0.19093465     0.07500
C1499       C  0.42725642  0.82737901  0.19557429    -0.02290
C1500       C  0.46687048  0.85518825  0.18897693    -0.02300
C1501       C  0.49180550  0.84173948  0.17834076     0.07630
C1502       C  0.47710649  0.80069323  0.17369576    -0.02490
Br1503     Br  0.01057229  0.78267157  0.15715583    -0.01040
Br1504     Br  0.41720498  0.71635558  0.17493970    -0.01110
Br1505     Br  0.48708947  0.91168508  0.19438201    -0.01070
Br1506     Br  0.39406074  0.84533205  0.21278955    -0.01060
C1507       C  0.30184763  0.97540453  0.49695801    -0.02180
C1508       C  0.32534227  0.51088025  0.51197456     0.07500
C1509       C  0.30978658  0.52055013  0.53477467    -0.02290
C1510       C  0.27022494  0.99467311  0.54257428    -0.02300
C1511       C  0.24681658  0.95904989  0.52766339     0.07630
C1512       C  0.26231305  0.94949505  0.50477247    -0.02490
Br1513     Br  0.22965555  0.90060331  0.48470317    -0.01040
Br1514     Br  0.32403890  0.96207554  0.46591346    -0.01110
Br1515     Br  0.24803723  0.00796312  0.57366891    -0.01070
Br1516     Br  0.34262102  0.56918415  0.55501681    -0.01060
C1517       C  0.19391892  0.59754948  0.68416470    -0.02180
C1518       C  0.23243336  0.60628561  0.69197932     0.07500
C1519       C  0.23976253  0.57448608  0.69542056    -0.02290
C1520       C  0.20807041  0.53490492  0.69413589    -0.02300
C1521       C  0.16937773  0.52629565  0.68673118     0.07630
C1522       C  0.16202061  0.55812727  0.68363793    -0.02490
Br1523     Br  0.10788618  0.54730749  0.67853347    -0.01040
Br1524     Br  0.18606561  0.63759681  0.66827500    -0.01110
Br1525     Br  0.21739094  0.49347224  0.70549058    -0.01070
Br1526     Br  0.29404140  0.58583329  0.70016908    -0.01060
C1527       C  0.33172558  0.88519888  0.36011890    -0.02180
C1528       C  0.34546317  0.86181369  0.34737513     0.07500
C1529       C  0.38621737  0.87789992  0.34099007    -0.02290
C1530       C  0.41347606  0.91768077  0.34764445    -0.02300
C1531       C  0.39969878  0.94107457  0.36036229     0.07630
C1532       C  0.35894920  0.92490133  0.36681633    -0.02490
Br1533     Br  0.34066848  0.95645369  0.38600708    -0.01040
Br1534     Br  0.27553303  0.86278960  0.36791843    -0.01110
Br1535     Br  0.46959467  0.94031169  0.33953425    -0.01070
Br1536     Br  0.40430663  0.84607495  0.32195655    -0.01060
C1537       C  0.47229769  0.57719398  0.21487857    -0.02180
C1538       C  0.46858724  0.60416611  0.19707986     0.07500
C1539       C  0.45329806  0.59252455  0.17047117    -0.02290
C1540       C  0.44132354  0.55376067  0.16169287    -0.02300
C1541       C  0.44657674  0.52745927  0.17910900     0.07630
C1542       C  0.46204241  0.53904619  0.20563072    -0.02490
Br1543     Br  0.46957565  0.50285665  0.22903301    -0.01040
Br1544     Br  0.49043428  0.59152615  0.25218484    -0.01110
Br1545     Br  0.41559595  0.53621309  0.12635578    -0.01070
Br1546     Br  0.44651973  0.62875511  0.14665353    -0.01060
C1547       C  0.09794541  0.63865857  0.32620989    -0.02180
C1548       C  0.10241319  0.66986232  0.34370410     0.07500
C1549       C  0.11964223  0.67492383  0.36978107    -0.02290
C1550       C  0.13309269  0.64922059  0.37821587    -0.02300
C1551       C  0.12724389  0.61719945  0.36112823     0.07630
C1552       C  0.10969345  0.61179233  0.33518969    -0.02490
Br1553     Br  0.10152667  0.56752208  0.31222424    -0.01040
Br1554     Br  0.07687179  0.63298747  0.28962792    -0.01110
Br1555     Br  0.16149147  0.65937861  0.41261607    -0.01070
Br1556     Br  0.12698625  0.71837976  0.39328036    -0.01060
C1557       C  0.31710242  0.53251505  0.03009863    -0.02180
C1558       C  0.27912317  0.51837157  0.01849979     0.07500
C1559       C  0.25368463  0.97728380  0.01323785    -0.02290
C1560       C  0.26631314  0.95020055  0.01974180    -0.02300
C1561       C  0.30435011  0.96435038  0.03125286     0.07630
C1562       C  0.32964290  0.50535722  0.03672851    -0.02490
Br1563     Br  0.38059447  0.52407745  0.05435100    -0.01040
Br1564     Br  0.35197284  0.58908509  0.03627370    -0.01110
Br1565     Br  0.23166724  0.89369020  0.01299223    -0.01070
Br1566     Br  0.20263315  0.95832388  0.99548498    -0.01060
C1567       C  0.24342363  0.71341315  0.50324569    -0.02180
C1568       C  0.26914828  0.69836737  0.50882655     0.07500
C1569       C  0.30688373  0.72275175  0.52067167    -0.02290
C1570       C  0.31869534  0.76221640  0.52751866    -0.02300
C1571       C  0.29280480  0.77716420  0.52217131     0.07630
C1572       C  0.25525451  0.75294490  0.51007917    -0.02490
Br1573     Br  0.22017517  0.77401330  0.50332249    -0.01040
Br1574     Br  0.19275090  0.68044745  0.48539395    -0.01110
Br1575     Br  0.36928317  0.79491890  0.54578600    -0.01070
Br1576     Br  0.34213893  0.70185665  0.52760224    -0.01060
C1577       C  0.42827359  0.77867699  0.68479439    -0.02180
C1578       C  0.46621581  0.79251312  0.69639643     0.07500
C1579       C  0.49187557  0.83353868  0.70168345    -0.02290
C1580       C  0.47977388  0.86095798  0.69488636    -0.02300
C1581       C  0.44201630  0.84713673  0.68305498     0.07630
C1582       C  0.41631497  0.80612520  0.67775687    -0.02490
Br1583     Br  0.36594933  0.78782884  0.65919444    -0.01040
Br1584     Br  0.39276384  0.72219209  0.67874142    -0.01110
Br1585     Br  0.01492676  0.91749519  0.70119251    -0.01070
Br1586     Br  0.04269132  0.85200180  0.71942847    -0.01060
C1587       C  0.09729485  0.88794402  0.82629426    -0.02180
C1588       C  0.10428040  0.86278703  0.84368277     0.07500
C1589       C  0.12259836  0.87616539  0.86933444    -0.02290
C1590       C  0.13506045  0.91533691  0.87739151    -0.02300
C1591       C  0.12802146  0.94051259  0.85998382     0.07630
C1592       C  0.10952057  0.92706729  0.83439699    -0.02490
Br1593     Br  0.10029048  0.96189495  0.81082417    -0.01040
Br1594     Br  0.06974488  0.86848769  0.79176404    -0.01110
Br1595     Br  0.16279223  0.93460239  0.91202463    -0.01070
Br1596     Br  0.13113619  0.84110350  0.89316713    -0.01060
C1597       C  0.17995594  0.56846346  0.20071030    -0.02180
C1598       C  0.18565048  0.58616030  0.17471161     0.07500
C1599       C  0.21717094  0.59110785  0.15745099    -0.02290
C1600       C  0.24293685  0.57785982  0.16620438    -0.02300
C1601       C  0.23724911  0.56019869  0.19222385     0.07630
C1602       C  0.20535580  0.55479737  0.20931829    -0.02490
Br1603     Br  0.19533203  0.52747859  0.24426283    -0.01040
Br1604     Br  0.13684528  0.56202252  0.22425748    -0.01110
Br1605     Br  0.28624919  0.58449553  0.14287551    -0.01070
Br1606     Br  0.22587435  0.61703965  0.12213277    -0.01060
C1607       C  0.14009982  0.92393430  0.33632663    -0.02180
C1608       C  0.16125681  0.90829729  0.35025670     0.07500
C1609       C  0.14355066  0.88077986  0.37179963    -0.02290
C1610       C  0.10415849  0.86844110  0.37932207    -0.02300
C1611       C  0.08299969  0.88392079  0.36523494     0.07630
C1612       C  0.10072166  0.91146150  0.34373600    -0.02490
Br1613     Br  0.07112650  0.93225294  0.32480761    -0.01040
Br1614     Br  0.16511710  0.96245058  0.30704173    -0.01110
Br1615     Br  0.07896550  0.83018152  0.40874151    -0.01070
Br1616     Br  0.17314437  0.85996946  0.39059992    -0.01060
C1617       C  0.30065623  0.71035816  0.02587046    -0.02180
C1618       C  0.32557280  0.74824079  0.01425939     0.07500
C1619       C  0.31115674  0.77457405  0.00885696    -0.02290
C1620       C  0.27163405  0.76304416  0.01543818    -0.02300
C1621       C  0.24663855  0.72502942  0.02689472     0.07630
C1622       C  0.26115578  0.69878328  0.03233645    -0.02490
Br1623     Br  0.22767865  0.64783237  0.04998627    -0.01040
Br1624     Br  0.32067519  0.67427955  0.03249679    -0.01110
Br1625     Br  0.25158863  0.79908093  0.00889662    -0.01070
Br1626     Br  0.34477462  0.82536762  0.99100369    -0.01060
C1627       C  0.04800246  0.77028603  0.50806433    -0.02180
C1628       C  0.00702580  0.74462670  0.51338506     0.07500
C1629       C  0.49306730  0.70669549  0.52518266    -0.02290
C1630       C  0.02037503  0.69456633  0.53222998    -0.02300
C1631       C  0.06137378  0.72031944  0.52701333     0.07630
C1632       C  0.07528087  0.75819381  0.51513183    -0.02490
Br1633     Br  0.13174171  0.79362794  0.50907056    -0.01040
Br1634     Br  0.06660523  0.82106319  0.48980540    -0.01110
Br1635     Br  0.50190934  0.64378620  0.55042560    -0.01070
Br1636     Br  0.43660420  0.67158505  0.53144356    -0.01060
C1637       C  0.38418555  0.92592170  0.82567885    -0.02180
C1638       C  0.35093535  0.91775633  0.84221429     0.07500
C1639       C  0.34353776  0.89668871  0.86701413    -0.02290
C1640       C  0.36920082  0.88312118  0.87521939    -0.02300
C1641       C  0.40278016  0.89175692  0.85888703     0.07630
C1642       C  0.41012946  0.91268440  0.83403780    -0.02490
Br1643     Br  0.45588906  0.92361248  0.81185041    -0.01580
Br1644     Br  0.39464215  0.95586387  0.79184872    -0.01110
Br1645     Br  0.35771446  0.85188785  0.90859069    -0.01070
Br1646     Br  0.29782605  0.88563580  0.88935388    -0.01060
C1647       C  0.46344190  0.54592000  0.68714264    -0.02180
C1648       C  0.48846754  0.58472447  0.67707747     0.07500
C1649       C  0.47494482  0.61218633  0.67399754    -0.02290
C1650       C  0.43605105  0.60093193  0.68181640    -0.02300
C1651       C  0.41095002  0.56204275  0.69182343     0.07630
C1652       C  0.42461753  0.53460351  0.69481407    -0.02490
Br1653     Br  0.39160593  0.98261153  0.71145306    -0.01040
Br1654     Br  0.48228892  0.50819351  0.69002858    -0.01110
Br1655     Br  0.41736674  0.63868016  0.67941014    -0.01070
Br1656     Br  0.00867539  0.66401776  0.65747263    -0.01060
C1657       C  0.80493570  0.49847048  0.71081908     0.02800
C1658       C  0.83809208  0.01975198  0.69368276    -0.13350
C1659       C  0.87293799  0.05176688  0.70399146     0.00300
C1660       C  0.87404081  0.06678612  0.72990243    -0.11880
C1661       C  0.84090538  0.04865726  0.74695022     0.02790
C1662       C  0.80597079  0.01377792  0.73763065    -0.11300
H1663       H  0.83923726  0.50841893  0.67355689     0.08380
H1664       H  0.90182220  0.09201264  0.73714298     0.05910
H1665       H  0.78062015  0.99827664  0.75126134     0.05760
C1666       C  0.59823771  0.13686756  0.66358405     0.02800
C1667       C  0.56200650  0.12249502  0.67763053    -0.13350
C1668       C  0.52652610  0.09427696  0.66550459     0.00300
C1669       C  0.52610189  0.07719347  0.64059000    -0.11880
C1670       C  0.56134844  0.08824525  0.62669318     0.02790
C1671       C  0.59789318  0.11927469  0.63777146    -0.11300
H1672       H  0.56042031  0.13568283  0.69687940     0.08380
H1673       H  0.49753640  0.05482898  0.63218514     0.05910
H1674       H  0.62529945  0.13011138  0.62619588     0.05760
C1675       C  0.79248208  0.47023158  0.83035596     0.02800
C1676       C  0.77226115  0.45064944  0.80570043    -0.13350
C1677       C  0.77666636  0.41886702  0.79471103     0.00300
C1678       C  0.80005771  0.40678324  0.80870570    -0.11880
C1679       C  0.82135755  0.42706030  0.83171085     0.02790
C1680       C  0.81700196  0.45763542  0.84298045    -0.11300
H1681       H  0.75466353  0.46085472  0.79478305     0.08380
H1682       H  0.80358481  0.38239115  0.80102348     0.05910
H1683       H  0.83511297  0.47315799  0.86070057     0.05760
C1684       C  0.95481347  0.33435367  0.87481347     0.02800
C1685       C  0.97188232  0.35234912  0.90059215    -0.13350
C1686       C  0.96935768  0.38591897  0.91018891     0.00300
C1687       C  0.95140308  0.40162081  0.89372842    -0.11880
C1688       C  0.93216992  0.38248034  0.86981202     0.02790
C1689       C  0.93505216  0.35036862  0.85972211    -0.11300
H1690       H  0.98510078  0.33931545  0.91356693     0.08380
H1691       H  0.94905329  0.42705223  0.90063952     0.05910
H1692       H  0.91851155  0.33584771  0.84125155     0.05760
C1693       C  0.95494121  0.30208047  0.49797928     0.02800
C1694       C  0.97374734  0.28509956  0.51306363    -0.13350
C1695       C  0.97856170  0.25472152  0.50187382     0.00300
C1696       C  0.96223131  0.23826670  0.47670568    -0.11880
C1697       C  0.94196898  0.25271606  0.46132878     0.02790
C1698       C  0.93814190  0.28501228  0.47192989    -0.11300
H1699       H  0.48844695  0.29790720  0.53240744     0.08380
H1700       H  0.96660711  0.21449798  0.46881015     0.05910
H1701       H  0.92404792  0.29776767  0.45957115     0.05760
C1702       C  0.61825568  0.16719075  0.54230037     0.02800
C1703       C  0.59699724  0.18190889  0.52760207    -0.13350
C1704       C  0.59006398  0.21089019  0.53898065     0.00300
C1705       C  0.60617425  0.22804078  0.56407252    -0.11880
C1706       C  0.62886881  0.21608614  0.57900074     0.02790
C1707       C  0.63483867  0.18506906  0.56822414    -0.11300
H1708       H  0.58243490  0.16849741  0.50833778     0.08380
H1709       H  0.60020504  0.25071118  0.57207508     0.05910
H1710       H  0.65075270  0.17399933  0.58029978     0.05760
C1711       C  0.93591296  0.30050578  0.99908600     0.02800
C1712       C  0.89987858  0.28601022  0.01382575    -0.13350
C1713       C  0.86375229  0.25703287  0.00255977     0.00300
C1714       C  0.86261436  0.23957807  0.97760491    -0.11880
C1715       C  0.89727691  0.25146646  0.96263466     0.02790
C1716       C  0.93442794  0.28250384  0.97324742    -0.11300
H1717       H  0.89882668  0.29967085  0.03298457     0.08380
H1718       H  0.83385397  0.21690927  0.96964927     0.05910
H1719       H  0.96137737  0.29352299  0.96109473     0.05760
C1720       C  0.63704572  0.16673320  0.04290905     0.02800
C1721       C  0.63762486  0.18391934  0.06895812    -0.13350
C1722       C  0.67374285  0.21698412  0.07909840     0.00300
C1723       C  0.70819094  0.23206595  0.06329040    -0.11880
C1724       C  0.70793344  0.21538119  0.03818407     0.02790
C1725       C  0.67259477  0.18436038  0.02739324    -0.11300
H1726       H  0.61107397  0.17069156  0.08167368     0.08380
H1727       H  0.73634560  0.25625781  0.07095505     0.05910
H1728       H  0.67438521  0.17139941  0.00810734     0.05760
C1729       C  0.97215445  0.33137555  0.37709254     0.02800
C1730       C  0.00914611  0.34531035  0.36386232    -0.13350
C1731       C  0.54420661  0.37512833  0.37560056     0.00300
C1732       C  0.54343727  0.39389038  0.39948325    -0.11880
C1733       C  0.00783007  0.38152430  0.41350727     0.02790
C1734       C  0.97159343  0.34996182  0.40226578    -0.11300
H1735       H  0.01166062  0.33090742  0.34550592     0.08380
H1736       H  0.57156287  0.41750158  0.40762255     0.05910
H1737       H  0.94385398  0.33899226  0.41346714     0.05760
C1738       C  0.77058665  0.46575586  0.33409273     0.02800
C1739       C  0.73507447  0.44876376  0.34962282    -0.13350
C1740       C  0.69980773  0.41704364  0.33931076     0.00300
C1741       C  0.69941547  0.39920549  0.31462702    -0.11880
C1742       C  0.73325407  0.41503979  0.29818978     0.02790
C1743       C  0.76946751  0.44836457  0.30802829    -0.11300
H1744       H  0.73335359  0.46254326  0.36854192     0.08380
H1745       H  0.67132783  0.37445863  0.30735083     0.05910
H1746       H  0.79567697  0.46179834  0.29497499     0.05760
C1747       C  0.62757503  0.13903477  0.16273324     0.02800
C1748       C  0.65265598  0.12691866  0.17502167    -0.13350
C1749       C  0.65616503  0.09563063  0.16418884     0.00300
C1750       C  0.63367496  0.07442796  0.14182041    -0.11880
C1751       C  0.61049327  0.08665868  0.12768158     0.02790
C1752       C  0.60673686  0.11899903  0.13833768    -0.11300
H1753       H  0.67159574  0.14313384  0.19226404     0.08380
H1754       H  0.63636614  0.04934916  0.13456210     0.05910
H1755       H  0.58920481  0.12924186  0.12736321     0.05760
C1756       C  0.78899060  0.50231725  0.20827170     0.02800
C1757       C  0.80579578  0.02014151  0.23408875    -0.13350
C1758       C  0.80333481  0.05374898  0.24357573     0.00300
C1759       C  0.78631419  0.07007976  0.22682311    -0.11880
C1760       C  0.76647784  0.05059767  0.20315534     0.02790
C1761       C  0.76893155  0.01811954  0.19326631    -0.11300
H1762       H  0.81875243  0.50695303  0.24716783     0.08380
H1763       H  0.78461438  0.09595330  0.23355120     0.05910
H1764       H  0.75206912  0.50331952  0.17496146     0.05760
C1765       C  0.54991079  0.25183105  0.83124822     0.02800
C1766       C  0.56369083  0.28884195  0.84439475    -0.13350
C1767       C  0.59538667  0.32368067  0.83366175     0.00300
C1768       C  0.61587981  0.32244729  0.81083016    -0.11880
C1769       C  0.60225868  0.28727938  0.79602793     0.02790
C1770       C  0.56926713  0.25123804  0.80644001    -0.11300
H1771       H  0.54804338  0.29160097  0.86195494     0.08380
H1772       H  0.64108441  0.35023804  0.80350705     0.05910
H1773       H  0.55783371  0.22375689  0.79485287     0.05760
C1774       C  0.68509831  0.05069397  0.87453072     0.02800
C1775       C  0.66926466  0.01451029  0.85986355    -0.13350
C1776       C  0.63696312  0.47956439  0.87012676     0.00300
C1777       C  0.61741356  0.48025471  0.89363848    -0.11880
C1778       C  0.63357388  0.01410637  0.90996104     0.02790
C1779       C  0.66716375  0.05013380  0.90019831    -0.11300
H1780       H  0.68408542  0.01216272  0.84167875     0.08380
H1781       H  0.59173079  0.45258625  0.90065814     0.05910
H1782       H  0.68035675  0.07656603  0.91302794     0.05760
C1783       C  0.88681659  0.40117734  0.66624580     0.02800
C1784       C  0.90296682  0.38195955  0.68181170    -0.13350
C1785       C  0.93268494  0.37583061  0.67092843     0.00300
C1786       C  0.94940591  0.39124740  0.64559524    -0.11880
C1787       C  0.93580275  0.41180718  0.62976877     0.02790
C1788       C  0.90404839  0.41684083  0.64001292    -0.11300
H1789       H  0.88992622  0.36790300  0.70131221     0.08380
H1790       H  0.97265187  0.38590613  0.63794784     0.05910
H1791       H  0.89180976  0.43105588  0.62725765     0.05760
C1792       C  0.52237918  0.23855620  0.71104659     0.02800
C1793       C  0.50658926  0.25896460  0.69646087    -0.13350
C1794       C  0.97624687  0.26377622  0.70768372     0.00300
C1795       C  0.95891708  0.24620682  0.73242817    -0.11880
C1796       C  0.97222877  0.22445926  0.74728391     0.02790
C1797       C  0.50441388  0.22053546  0.73666048    -0.11300
H1798       H  0.52007613  0.27453798  0.67744798     0.08380
H1799       H  0.93519197  0.25059588  0.74034984     0.05910
H1800       H  0.51627638  0.20523500  0.74863315     0.05760
C1801       C  0.75935374  0.15936080  0.49809759     0.02800
C1802       C  0.77720467  0.15861330  0.47375649    -0.13350
C1803       C  0.76577191  0.12277835  0.46026780     0.00300
C1804       C  0.73463139  0.08644926  0.47182483    -0.11880
C1805       C  0.71609111  0.08707150  0.49702692     0.02790
C1806       C  0.73011001  0.12414796  0.51020927    -0.11300
H1807       H  0.80016287  0.18686699  0.46523679     0.08380
H1808       H  0.72405781  0.05853925  0.46091004     0.05910
H1809       H  0.71622350  0.12657160  0.52887094     0.05760
C1810       C  0.85065969  0.38566336  0.54042410     0.02800
C1811       C  0.83250981  0.35108356  0.52401161    -0.13350
C1812       C  0.80198274  0.31506694  0.53449734     0.00300
C1813       C  0.78594198  0.31319054  0.56021682    -0.11880
C1814       C  0.80140856  0.34672736  0.57689513     0.02790
C1815       C  0.83419024  0.38346910  0.56704825    -0.11300
H1816       H  0.84497265  0.35043185  0.50422169     0.08380
H1817       H  0.76212761  0.28455813  0.56763095     0.05910
H1818       H  0.84789623  0.40927065  0.58045180     0.05760
C1819       C  0.72177866  0.06971198  0.00043063     0.02800
C1820       C  0.73922367  0.05234809  0.01665621    -0.13350
C1821       C  0.76942922  0.04665973  0.00606893     0.00300
C1822       C  0.78538081  0.06093641  0.98035085    -0.11880
C1823       C  0.77038287  0.07959378  0.96388067     0.02790
C1824       C  0.73824436  0.08415155  0.97386710    -0.11300
H1825       H  0.72670847  0.03910803  0.03644458     0.08380
H1826       H  0.80894770  0.05598168  0.97284528     0.05910
H1827       H  0.72504908  0.09693208  0.96063196     0.05760
C1828       C  0.85773619  0.40691081  0.04408236     0.02800
C1829       C  0.84362579  0.42956386  0.03047351    -0.13350
C1830       C  0.81448030  0.43563940  0.04240404     0.00300
C1831       C  0.79698894  0.41771276  0.06703321    -0.11880
C1832       C  0.80853870  0.39377762  0.08093101     0.02790
C1833       C  0.83943866  0.38832718  0.06952596    -0.11300
H1834       H  0.85732916  0.44544146  0.01158992     0.08380
H1835       H  0.77412367  0.42307370  0.07541921     0.05910
H1836       H  0.85000279  0.37121805  0.08071663     0.05760
C1837       C  0.68784173  0.06840696  0.37641671     0.02800
C1838       C  0.67099001  0.08759174  0.36160939    -0.13350
C1839       C  0.63771423  0.08837094  0.37159843     0.00300
C1840       C  0.61856458  0.06772562  0.39514709    -0.11880
C1841       C  0.63565331  0.05119597  0.41170335     0.02790
C1842       C  0.67005730  0.05038614  0.40210705    -0.11300
H1843       H  0.68548299  0.10504640  0.34339130     0.08380
H1844       H  0.59216885  0.06835135  0.40195464     0.05910
H1845       H  0.68377492  0.03776680  0.41498069     0.05760
C1846       C  0.55160924  0.23023520  0.33112152     0.02800
C1847       C  0.56291227  0.20461367  0.34379031    -0.13350
C1848       C  0.59387566  0.20015000  0.33317517     0.00300
C1849       C  0.61572655  0.22251017  0.31088631    -0.11880
C1850       C  0.60382966  0.24544935  0.29619988     0.02790
C1851       C  0.57182191  0.25007487  0.30649982    -0.11300
H1852       H  0.54622090  0.18596651  0.36106778     0.08380
H1853       H  0.64067584  0.21945078  0.30387673     0.05910
H1854       H  0.56190617  0.26753282  0.29504663     0.05760
C1855       C  0.96901465  0.17897454  0.24458078     0.02800
C1856       C  0.95571433  0.14420202  0.22949821    -0.13350
C1857       C  0.97744368  0.14326035  0.20733914     0.00300
C1858       C  0.50940680  0.17852084  0.19701178    -0.11880
C1859       C  0.52193900  0.21555001  0.20991689     0.02790
C1860       C  0.50196041  0.21541017  0.23453967    -0.11300
H1861       H  0.93004204  0.11640784  0.23633918     0.08380
H1862       H  0.52597663  0.17625711  0.17984590     0.05910
H1863       H  0.51282351  0.24272579  0.24624929     0.05760
C1864       C  0.88606130  0.41767862  0.16435871     0.02800
C1865       C  0.90281368  0.45397956  0.17886177    -0.13350
C1866       C  0.93630609  0.48805317  0.16889698     0.00300
C1867       C  0.95579711  0.48626653  0.14570345    -0.11880
C1868       C  0.93874836  0.45227765  0.12942336     0.02790
C1869       C  0.90414296  0.41707157  0.13900557    -0.11300
H1870       H  0.88808398  0.45715594  0.19680426     0.08380
H1871       H  0.98235308  0.51331075  0.13886320     0.05910
H1872       H  0.89046798  0.39049960  0.12632661     0.05760
C1873       C  0.78788824  0.25144458  0.33225711     0.02800
C1874       C  0.80939865  0.28753443  0.34693561    -0.13350
C1875       C  0.81651015  0.32356279  0.33555112     0.00300
C1876       C  0.80033879  0.32460592  0.31051887    -0.11880
C1877       C  0.77770938  0.28986635  0.29555758     0.02790
C1878       C  0.77149192  0.25276830  0.30631767    -0.11300
H1879       H  0.82401498  0.28871225  0.36617855     0.08380
H1880       H  0.80637637  0.35335602  0.30253644     0.05910
H1881       H  0.75561990  0.22576457  0.29419998     0.05760
C1882       C  0.95156471  0.05077053  0.37631822     0.02800
C1883       C  0.93280762  0.01506105  0.36103228    -0.13350
C1884       C  0.92836286  0.47972739  0.37186184     0.00300
C1885       C  0.94491893  0.47938078  0.39689883    -0.11880
C1886       C  0.96482220  0.01390025  0.41255762     0.02790
C1887       C  0.96836927  0.05017259  0.40229380    -0.11300
H1888       H  0.91788177  0.01326577  0.34181062     0.08380
H1889       H  0.94082519  0.45116336  0.40455266     0.05910
H1890       H  0.98232777  0.07687956  0.41483002     0.05760
C1891       C  0.78636538  0.21719102  0.70902028     0.02800
C1892       C  0.77154714  0.18246152  0.69284276    -0.13350
C1893       C  0.76011413  0.14534152  0.70506163     0.00300
C1894       C  0.77064146  0.14427807  0.73231297    -0.11880
C1895       C  0.79373059  0.17912023  0.74720656     0.02790
C1896       C  0.80018633  0.21597830  0.73597879    -0.11300
H1897       H  0.76519039  0.18369553  0.67137618     0.08380
H1898       H  0.76141108  0.11554881  0.74180910     0.05910
H1899       H  0.81413330  0.24276801  0.74842888     0.05760
C1900       C  0.61615622  0.41623917  0.66769501     0.02800
C1901       C  0.63030432  0.45030484  0.68452470    -0.13350
C1902       C  0.64194980  0.48786324  0.67293343     0.00300
C1903       C  0.63246304  0.49012875  0.64558256    -0.11880
C1904       C  0.61051542  0.45601380  0.62985999     0.02790
C1905       C  0.60374532  0.41872366  0.64052685    -0.11300
H1906       H  0.63665197  0.44852002  0.70594558     0.08380
H1907       H  0.64184484  0.01918380  0.63656578     0.05910
H1908       H  0.59072673  0.39256182  0.62744393     0.05760
C1909       C  0.93537117  0.06365623  0.49722494     0.02800
C1910       C  0.89902250  0.04290606  0.51169753    -0.13350
C1911       C  0.86432176  0.04006108  0.50122735     0.00300
C1912       C  0.86508793  0.05982840  0.47743546    -0.11880
C1913       C  0.89974765  0.07985963  0.46192081     0.02790
C1914       C  0.93559781  0.08241517  0.47192280    -0.11300
H1915       H  0.89642751  0.02586688  0.53005622     0.08380
H1916       H  0.83734331  0.05721398  0.47020036     0.05910
H1917       H  0.96257233  0.09710518  0.45967108     0.05760
C1918       C  0.63664877  0.40152122  0.54258712     0.02800
C1919       C  0.67280841  0.42361705  0.52808593    -0.13350
C1920       C  0.70848680  0.42921549  0.53891522     0.00300
C1921       C  0.70906323  0.41074461  0.56304450    -0.11880
C1922       C  0.67460667  0.38926509  0.57847719     0.02790
C1923       C  0.63777550  0.38422334  0.56821655    -0.11300
H1924       H  0.67433753  0.43967929  0.50944014     0.08380
H1925       H  0.73749288  0.41529175  0.57046697     0.05910
H1926       H  0.61090244  0.36864812  0.58051119     0.05760
C1927       C  0.80294044  0.23252865  0.20753005     0.02800
C1928       C  0.83838990  0.25137986  0.19193129    -0.13350
C1929       C  0.87426944  0.25743777  0.20289106     0.00300
C1930       C  0.87539086  0.24215736  0.22833929    -0.11880
C1931       C  0.84114591  0.22186612  0.24418049     0.02790
C1932       C  0.80441419  0.21698887  0.23384883    -0.11300
H1933       H  0.83950471  0.26538975  0.17239997     0.08380
H1934       H  0.90393070  0.24745838  0.23610588     0.05910
H1935       H  0.77794359  0.20306488  0.24664517     0.05760
C1936       C  0.60251409  0.39711071  0.16452639     0.02800
C1937       C  0.60264118  0.41480427  0.13872266    -0.13350
C1938       C  0.56640748  0.41015518  0.12764868     0.00300
C1939       C  0.53112271  0.38794446  0.14225984    -0.11880
C1940       C  0.53075852  0.37075071  0.16721419     0.02790
C1941       C  0.56603974  0.37629916  0.17885155    -0.11300
H1942       H  0.63001198  0.43042579  0.12694300     0.08380
H1943       H  0.50294479  0.38298604  0.13400735     0.05910
H1944       H  0.56390998  0.36094900  0.19797040     0.05760
C1945       C  0.95458322  0.08401166  0.99915546     0.02800
C1946       C  0.97731655  0.12052568  0.01309328    -0.13350
C1947       C  0.98051065  0.15576865  0.00305114     0.00300
C1948       C  0.95914186  0.15525954  0.98016067    -0.11880
C1949       C  0.93895179  0.12097326  0.96436361     0.02790
C1950       C  0.93579281  0.08458400  0.97409079    -0.11300
H1951       H  0.49540393  0.12264210  0.03069966     0.08380
H1952       H  0.96151953  0.18313084  0.97334260     0.05910
H1953       H  0.92058973  0.05772560  0.96176323     0.05760
C1954       C  0.61732973  0.38325782  0.04370285     0.02800
C1955       C  0.63700587  0.38426756  0.06871429    -0.13350
C1956       C  0.63517793  0.34877644  0.07887995     0.00300
C1957       C  0.61581166  0.31397336  0.06347957    -0.11880
C1958       C  0.59365332  0.31194198  0.04071703     0.02790
C1959       C  0.59528979  0.34624570  0.03026243    -0.11300
H1960       H  0.65179285  0.41152921  0.08065843     0.08380
H1961       H  0.61465813  0.28675647  0.07055733     0.05910
H1962       H  0.57673122  0.34300469  0.01267895     0.05760
C1963       C  0.76945766  0.23174289  0.83170953     0.02800
C1964       C  0.73346229  0.21203223  0.84661458    -0.13350
C1965       C  0.69844644  0.20794301  0.83574326     0.00300
C1966       C  0.69851890  0.22560639  0.81107365    -0.11880
C1967       C  0.73311364  0.24559642  0.79547441     0.02790
C1968       C  0.76923055  0.24911712  0.80585421    -0.11300
H1969       H  0.73128278  0.19627383  0.86554859     0.08380
H1970       H  0.67044679  0.22177512  0.80346160     0.05910
H1971       H  0.79608484  0.26339728  0.79346241     0.05760
C1972       C  0.97057033  0.06811363  0.87550028     0.02800
C1973       C  0.50639710  0.08924680  0.86046597    -0.13350
C1974       C  0.54232872  0.09534052  0.87121895     0.00300
C1975       C  0.54353951  0.07854522  0.89601708    -0.11880
C1976       C  0.50920260  0.05693344  0.91160132     0.02790
C1977       C  0.97217969  0.05156659  0.90137847    -0.11300
H1978       H  0.50753904  0.10440886  0.84145685     0.08380
H1979       H  0.57218364  0.08384816  0.90356322     0.05910
H1980       H  0.94548957  0.03625750  0.91387922     0.05760
O1981       O  0.87976755  0.08741288  0.78500118    -0.80460
O1982       O  0.74620478  0.11264855  0.88284745    -0.82020
O1983       O  0.78722755  0.02916400  0.82419186    -0.79040
O1984       O  0.79541189  0.13966174  0.78487667    -0.77420
O1985       O  0.84297723  0.20606342  0.78232240    -0.79210
O1986       O  0.81457107  0.02172968  0.86384151    -0.80150
O1987       O  0.73919166  0.07888779  0.84281350    -0.81470
O1988       O  0.81345604  0.06861638  0.78246015    -0.81760
Eu1989     Eu  0.80570378  0.10056308  0.82249780     2.39200
O1990       O  0.82015318  0.16319669  0.83832361    -0.89270
O1991       O  0.85601315  0.08794770  0.83866275    -0.92870
C1992       C  0.84454056  0.06844012  0.77357788     1.01820
C1993       C  0.72529361  0.08405024  0.86573815     1.01630
C1994       C  0.79652113  0.00867123  0.84047742     1.01580
C1995       C  0.81129507  0.17504553  0.77349118     0.99440
H1996       H  0.78311095  0.07627284  0.87815951     0.29190
O1997       O  0.80693371  0.09890111  0.87093529    -1.01660
H1998       H  0.86925065  0.15011504  0.78690583     0.29220
O1999       O  0.86930255  0.15010969  0.80674286    -1.04200
O2000       O  0.85751731  0.21016118  0.92515613    -0.81430
O2001       O  0.99008302  0.18840198  0.82449765    -0.80960
O2002       O  0.80964951  0.07873084  0.92586492    -0.79400
O2003       O  0.83213855  0.23404614  0.82454284    -0.82740
O2004       O  0.93202595  0.22276884  0.78499233    -0.80600
O2005       O  0.90765888  0.06539413  0.88371305    -0.79240
O2006       O  0.93892010  0.16090147  0.92635669    -0.80770
O2007       O  0.95516273  0.27305945  0.88335115    -0.82690
O2008       O  0.89338385  0.09370323  0.92777596    -0.79430
O2009       O  0.92897560  0.28019413  0.84304034    -0.82100
O2010       O  0.78832718  0.12436227  0.92693396    -0.77840
O2011       O  0.94037911  0.09108296  0.84311390    -0.77870
O2012       O  0.95073228  0.17529716  0.78229516    -0.77520
O2013       O  0.79667083  0.20527092  0.86373369    -0.81010
O2014       O  0.92442064  0.23143540  0.92701140    -0.80440
O2015       O  0.99728564  0.22299188  0.86415217    -0.78760
Eu2016     Eu  0.81880966  0.16234183  0.88640986     2.39770
Eu2017     Eu  0.91867645  0.13601143  0.82271796     2.39570
Eu2018     Eu  0.85670175  0.08688575  0.88676653     2.38400
Eu2019     Eu  0.88336036  0.21365938  0.82242744     2.39880
Eu2020     Eu  0.93198982  0.20034485  0.88685399     2.39790
O2021       O  0.93124449  0.19907170  0.83869212    -0.93180
O2022       O  0.86897454  0.14977982  0.90181455    -0.92070
C2023       C  0.89295796  0.23020108  0.93639492     1.01990
C2024       C  0.51064170  0.21792684  0.84093484     1.00710
C2025       C  0.79000613  0.09462580  0.93690648     1.00100
C2026       C  0.80251250  0.22488803  0.84092904     1.02110
C2027       C  0.95107948  0.20674097  0.77346330     1.01030
C2028       C  0.93609872  0.07302638  0.86644738     0.99880
C2029       C  0.92301821  0.12532425  0.93765960     0.99930
C2030       C  0.94783054  0.29406802  0.86609398     1.02550
H2031       H  0.94291289  0.13796312  0.87846545     0.29920
O2032       O  0.92015197  0.13866543  0.87116968    -1.05340
H2033       H  0.88187906  0.23595298  0.87795238     0.31970
O2034       O  0.88072124  0.21217342  0.87082493    -1.07900
O2035       O  0.96845766  0.42511369  0.94829983    -0.80460
O2036       O  0.61998390  0.44612651  0.05042898    -0.82020
O2037       O  0.59561021  0.47407739  0.94843898    -0.79040
O2038       O  0.99902356  0.36094900  0.99104247    -0.77420
O2039       O  0.96645625  0.35316539  0.03174042    -0.79210
O2040       O  0.61737055  0.04128904  0.94736255    -0.80150
O2041       O  0.59266977  0.41123698  0.01083387    -0.81470
O2042       O  0.01368661  0.40330907  0.94726297    -0.81760
Eu2043     Eu  0.55010563  0.43378497  0.98804510     2.39200
O2044       O  0.55089168  0.43498883  0.03609350    -0.89270
O2045       O  0.53788513  0.48448485  0.97322304    -0.92870
C2046       C  0.98435346  0.40544522  0.93717069     1.01820
C2047       C  0.61117555  0.41658713  0.03405329     1.01630
C2048       C  0.61489567  0.50970223  0.93718051     1.01580
C2049       C  0.97061664  0.33974691  0.00830716     0.99440
H2050       H  0.62361015  0.49714041  0.99643487     0.29190
O2051       O  0.59988728  0.49589357  0.00373910    -1.01660
H2052       H  0.96368761  0.39773067  0.99609873     0.29220
O2053       O  0.98645401  0.42133160  0.00337158    -1.04200
O2054       O  0.60845601  0.04632148  0.08992689    -0.81430
O2055       O  0.95259638  0.02158018  0.99085693    -0.80960
O2056       O  0.66053942  0.07007904  0.99189849    -0.79400
O2057       O  0.52814008  0.41141835  0.08945271    -0.82740
O2058       O  0.91706213  0.40248371  0.05034968    -0.80600
O2059       O  0.54908307  0.05617769  0.94940484    -0.79240
O2060       O  0.57495370  0.10497225  0.05043032    -0.80770
O2061       O  0.97602618  0.99164950  0.09086975    -0.82690
O2062       O  0.61004451  0.11283515  0.01093224    -0.79430
O2063       O  0.95740529  0.42522384  0.09292055    -0.82100
O2064       O  0.66761161  0.04373310  0.03214280    -0.77840
O2065       O  0.48221812  0.00990414  0.94749257    -0.77870
O2066       O  0.90928066  0.42906517  0.01044183    -0.77520
O2067       O  0.59418953  0.45954826  0.09271464    -0.81010
O2068       O  0.56080714  0.06466267  0.09309164    -0.80440
O2069       O  0.97746120  0.05385380  0.03169229    -0.78760
Eu2070     Eu  0.60091498  0.49836608  0.05217920     2.39770
Eu2071     Eu  0.97472747  0.47133352  0.98778076     2.39570
Eu2072     Eu  0.58796315  0.04758357  0.98848638     2.38400
Eu2073     Eu  0.98813496  0.41987163  0.05174727     2.39880
Eu2074     Eu  0.52283702  0.03285178  0.05240380     2.39790
O2075       O  0.97519712  0.47024298  0.03596267    -0.93180
O2076       O  0.58650829  0.04677604  0.03664044    -0.92070
C2077       C  0.59226587  0.06506921  0.10175344     1.01990
C2078       C  0.95983088  0.04975545  0.00820677     1.00710
C2079       C  0.68150856  0.06265254  0.00911066     1.00100
C2080       C  0.56311557  0.42778086  0.10132338     1.02110
C2081       C  0.89634859  0.41131922  0.03396120     1.01030
C2082       C  0.51364846  0.04035947  0.93806013     0.99880
C2083       C  0.60428489  0.12620120  0.03388214     0.99930
C2084       C  0.95780683  0.45626596  0.10242062     1.02550
H2085       H  0.52514445  0.05741172  0.99690475     0.29920
O2086       O  0.52596138  0.03458727  0.00402450    -1.05340
H2087       H  0.53739344  0.48323464  0.08741965     0.31970
O2088       O  0.53726916  0.48348442  0.06759210    -1.07900
O2089       O  0.94193003  0.21386417  0.42313967    -0.80460
O2090       O  0.78488266  0.18841031  0.32441794    -0.82020
O2091       O  0.90822869  0.27187010  0.38334615    -0.79040
O2092       O  0.80680663  0.16067330  0.42249396    -0.77420
O2093       O  0.78816139  0.09451355  0.42619834    -0.79210
O2094       O  0.94345649  0.27912888  0.34398728    -0.80150
O2095       O  0.81049843  0.22140505  0.36488581    -0.81470
O2096       O  0.89402652  0.23196902  0.42575974    -0.81760
Eu2097     Eu  0.85577167  0.20028748  0.38508709     2.39200
O2098       O  0.80764060  0.13740388  0.36943318    -0.89270
O2099       O  0.91911128  0.21350367  0.36927639    -0.92870
C2100       C  0.92537519  0.23241647  0.43474428     1.01820
C2101       C  0.79247542  0.21692864  0.34157695     1.01630
C2102       C  0.93811575  0.29243257  0.36712158     1.01580
C2103       C  0.78762415  0.12574635  0.43445752     0.99440
H2104       H  0.85754434  0.22430964  0.32949353     0.29190
O2105       O  0.85841632  0.20156441  0.33672904    -1.01660
H2106       H  0.86987583  0.15133193  0.42087536     0.29220
O2107       O  0.86993001  0.15110802  0.40104408    -1.04200
O2108       O  0.80132571  0.09214932  0.28175941    -0.81430
O2109       O  0.95292193  0.11317331  0.38369094    -0.80960
O2110       O  0.88099574  0.22178253  0.28212994    -0.79400
O2111       O  0.74886700  0.06751638  0.38377989    -0.82740
O2112       O  0.86077445  0.07998180  0.42389968    -0.80600
O2113       O  0.99259524  0.23502173  0.32378515    -0.79240
O2114       O  0.92872093  0.13971086  0.28261133    -0.80770
O2115       O  0.83214790  0.02745891  0.32550606    -0.82690
O2116       O  0.94999520  0.20672604  0.28032670    -0.79430
O2117       O  0.79870848  0.02028345  0.36572449    -0.82100
O2118       O  0.81394527  0.17598455  0.28074727    -0.77840
O2119       O  0.00022817  0.21025914  0.36463583    -0.77870
O2120       O  0.92712574  0.12774630  0.42629121    -0.77520
O2121       O  0.74151694  0.09496917  0.34412913    -0.81010
O2122       O  0.84640205  0.07014165  0.28113839    -0.80440
O2123       O  0.92558646  0.07833326  0.34413700    -0.78760
Eu2124     Eu  0.80684361  0.13791704  0.32128390     2.39770
Eu2125     Eu  0.93359918  0.16548626  0.38544534     2.39570
Eu2126     Eu  0.92025421  0.21385758  0.32115988     2.38400
Eu2127     Eu  0.82039669  0.08720757  0.38588566     2.39880
Eu2128     Eu  0.88219396  0.10022344  0.32201709     2.39790
O2129       O  0.88313419  0.10167509  0.37013175    -0.93180
O2130       O  0.86980995  0.15053556  0.30657018    -0.92070
C2131       C  0.81745971  0.07263359  0.27075810     1.01990
C2132       C  0.94452676  0.08385155  0.36715592     1.00710
C2133       C  0.84546038  0.20600796  0.27096696     1.00100
C2134       C  0.72806361  0.07597883  0.36722357     1.02110
C2135       C  0.89601196  0.09657138  0.43543472     1.01030
C2136       C  0.01343106  0.22728364  0.34091356     0.99880
C2137       C  0.94829017  0.17504385  0.27096466     0.99930
C2138       C  0.80372444  0.00634964  0.34273366     1.02550
H2139       H  0.95515817  0.16270254  0.32987697     0.29920
O2140       O  0.93182398  0.16226416  0.33714308    -1.05340
H2141       H  0.79616031  0.06433041  0.33015099     0.31970
O2142       O  0.81872866  0.08814247  0.33739909    -1.07900
O2143       O  0.74512322  0.43583943  0.71850414    -0.80460
O2144       O  0.76192433  0.30614434  0.61504144    -0.82020
O2145       O  0.82611055  0.40251936  0.65795635    -0.79040
O2146       O  0.71446250  0.38867701  0.61617610    -0.77420
O2147       O  0.64737331  0.34321829  0.61480118    -0.79210
O2148       O  0.83313733  0.37641211  0.69834718    -0.80150
O2149       O  0.78394863  0.37337717  0.61417622    -0.81470
O2150       O  0.77823734  0.44563380  0.67787974    -0.81760
Eu2151     Eu  0.75375206  0.38048281  0.65497252     2.39200
O2152       O  0.70300477  0.31788677  0.63980113    -0.89270
O2153       O  0.75170174  0.37852365  0.70302023    -0.92870
C2154       C  0.77361451  0.45773627  0.70167939     1.01820
C2155       C  0.78185395  0.34189207  0.60401329     1.01630
C2156       C  0.84695867  0.39495461  0.67515798     1.01580
C2157       C  0.67894148  0.37305529  0.60502591     0.99440
H2158       H  0.78881469  0.32962518  0.66294055     0.29190
O2159       O  0.76529506  0.32873786  0.67030435    -1.01660
H2160       H  0.69092389  0.39187428  0.66399243     0.29220
O2161       O  0.69210578  0.36917578  0.67101133    -1.04200
O2162       O  0.66086847  0.19661117  0.65651654    -0.81430
O2163       O  0.64152540  0.32598120  0.75776918    -0.80960
O2164       O  0.78679615  0.27915293  0.71594550    -0.79400
O2165       O  0.63095655  0.25763128  0.61661516    -0.82740
O2166       O  0.61718818  0.35523261  0.65942748    -0.80600
O2167       O  0.77455769  0.37879668  0.75666095    -0.79240
O2168       O  0.69398860  0.24542038  0.75727727    -0.80770
O2169       O  0.58251867  0.23565308  0.71794367    -0.82690
O2170       O  0.76040210  0.29292885  0.75947409    -0.79430
O2171       O  0.57533742  0.26346777  0.67843818    -0.82100
O2172       O  0.75724628  0.24285274  0.67721499    -0.77840
O2173       O  0.72705848  0.39738062  0.76020534    -0.77870
O2174       O  0.64473609  0.38959386  0.69916670    -0.77520
O2175       O  0.67644663  0.23621552  0.61446973    -0.81010
O2176       O  0.62959837  0.18708895  0.69798894    -0.80440
O2177       O  0.62287900  0.25969701  0.76057453    -0.78760
Eu2178     Eu  0.71530454  0.26718371  0.65465386     2.39770
Eu2179     Eu  0.68899687  0.36627276  0.71948248     2.39570
Eu2180     Eu  0.76656448  0.33070713  0.71870177     2.38400
Eu2181     Eu  0.64040800  0.30586350  0.65543836     2.39880
Eu2182     Eu  0.65371074  0.25345893  0.71938663     2.39790
O2183       O  0.64083358  0.30389006  0.70359231    -0.93180
O2184       O  0.71609403  0.26706015  0.70297097    -0.92070
C2185       C  0.63269176  0.17507063  0.67372215     1.01990
C2186       C  0.62292541  0.29084243  0.76959464     1.00710
C2187       C  0.77780891  0.24937503  0.69969952     1.00100
C2188       C  0.64613016  0.23747139  0.60524058     1.02110
C2189       C  0.62472330  0.38382923  0.67649083     1.01030
C2190       C  0.75848022  0.39754062  0.76870649     0.99880
C2191       C  0.72928059  0.26190180  0.76875970     0.99930
C2192       C  0.56192329  0.24466802  0.70156575     1.02550
H2193       H  0.70349392  0.31675742  0.75451645     0.29920
O2194       O  0.70329771  0.31683059  0.73468842    -1.05340
H2195       H  0.62910233  0.23424129  0.66405793     0.31970
O2196       O  0.65286968  0.25688840  0.67117641    -1.07900
O2197       O  0.71303362  0.25591733  0.11724394    -0.80460
O2198       O  0.58173957  0.27909858  0.21739880    -0.82020
O2199       O  0.62257516  0.19804764  0.15670674    -0.79040
O2200       O  0.63432571  0.31006684  0.11742706    -0.77420
O2201       O  0.68233799  0.37639139  0.11482681    -0.79210
O2202       O  0.64925672  0.19012945  0.19650793    -0.80150
O2203       O  0.57408714  0.24644486  0.17672116    -0.81470
O2204       O  0.64681188  0.23740958  0.11497009    -0.81760
Eu2205     Eu  0.64070348  0.26925324  0.15566531     2.39200
O2206       O  0.65524967  0.33177094  0.17187141    -0.89270
O2207       O  0.69079407  0.25604707  0.17147458    -0.92870
C2208       C  0.67774458  0.23723055  0.10576142     1.01820
C2209       C  0.56080521  0.25041746  0.20032978     1.01630
C2210       C  0.63153571  0.17734321  0.17299573     1.01580
C2211       C  0.65131407  0.34526023  0.10564360     0.99440
H2212       H  0.61915571  0.24444457  0.21125465     0.29190
O2213       O  0.64255878  0.26749998  0.20403593    -1.01660
H2214       H  0.70463057  0.31885417  0.12031742     0.29220
O2215       O  0.70443222  0.31860599  0.14014762    -1.04200
O2216       O  0.69333101  0.37653058  0.25975059    -0.81430
O2217       O  0.82504529  0.35533930  0.15724157    -0.80960
O2218       O  0.64488989  0.24724579  0.25859697    -0.79400
O2219       O  0.66572147  0.40029354  0.15787193    -0.82740
O2220       O  0.76786590  0.39119129  0.11873660    -0.80600
O2221       O  0.74127078  0.23193343  0.21600685    -0.79240
O2222       O  0.77655645  0.32962435  0.25800958    -0.80770
O2223       O  0.79015031  0.44134255  0.21653426    -0.82690
O2224       O  0.73054116  0.26262345  0.25984220    -0.79430
O2225       O  0.76404948  0.44865689  0.17628911    -0.82100
O2226       O  0.62374338  0.29295158  0.26066829    -0.77840
O2227       O  0.77439783  0.25803497  0.17559111    -0.77870
O2228       O  0.78579679  0.34324682  0.11511090    -0.77520
O2229       O  0.63092309  0.37292444  0.19754141    -0.81010
O2230       O  0.76036629  0.39807169  0.26082221    -0.80440
O2231       O  0.83217916  0.39116611  0.19624296    -0.78760
Eu2232     Eu  0.65413399  0.33060507  0.22006991     2.39770
Eu2233     Eu  0.75337079  0.30371781  0.15532352     2.39570
Eu2234     Eu  0.69198544  0.25517208  0.21957685     2.38400
Eu2235     Eu  0.71879250  0.38210507  0.15606683     2.39880
Eu2236     Eu  0.76750889  0.36864290  0.21958107     2.39790
O2237       O  0.76662740  0.36706996  0.17149347    -0.93180
O2238       O  0.70462996  0.31806912  0.23476954    -0.92070
C2239       C  0.72886836  0.39593716  0.27097861     1.01990
C2240       C  0.84573544  0.38511612  0.17347433     1.00710
C2241       C  0.62516883  0.26279629  0.27004852     1.00100
C2242       C  0.63617324  0.39146503  0.17430075     1.02110
C2243       C  0.78673132  0.37520442  0.10682424     1.01030
C2244       C  0.76951303  0.23922583  0.19869290     0.99880
C2245       C  0.76091884  0.29410865  0.26924013     0.99930
C2246       C  0.78262931  0.46236164  0.19940315     1.02550
H2247       H  0.77783602  0.30537919  0.21071182     0.29920
O2248       O  0.75524636  0.30668917  0.20372383    -1.05340
H2249       H  0.71717521  0.40437020  0.21183501     0.31970
O2250       O  0.71604473  0.38071696  0.20446764    -1.07900
O2251       O  0.52290206  0.04512634  0.58996693    -0.80460
O2252       O  0.65670422  0.02289307  0.49110298    -0.82020
O2253       O  0.60936906  0.99655117  0.59236815    -0.79040
O2254       O  0.62110123  0.10708999  0.55018825    -0.77420
O2255       O  0.59569003  0.11427712  0.50951293    -0.79210
O2256       O  0.56372774  0.42937098  0.59362262    -0.80150
O2257       O  0.66409616  0.05824493  0.53039453    -0.81470
O2258       O  0.58969681  0.06638077  0.59290103    -0.81760
Eu2259     Eu  0.59892629  0.03454642  0.55351823     2.39200
O2260       O  0.59869320  0.03295830  0.50527488    -0.89270
O2261       O  0.53573546  0.48375524  0.56862130    -0.92870
C2262       C  0.55804589  0.06573320  0.60134490     1.01820
C2263       C  0.67731309  0.05288777  0.50722319     1.01630
C2264       C  0.59408345  0.46080143  0.60328181     1.01580
C2265       C  0.61349891  0.12793445  0.53295383     0.99440
H2266       H  0.60954773  0.47170355  0.54507391     0.29190
O2267       O  0.58684041  0.47264163  0.53793771    -1.01660
H2268       H  0.54811992  0.06911557  0.54363620     0.29220
O2269       O  0.54735484  0.04538075  0.53684500    -1.04200
O2270       O  0.54569043  0.42119250  0.45175977    -0.81430
O2271       O  0.91257699  0.44680974  0.54907581    -0.80960
O2272       O  0.57371770  0.39851690  0.55061320    -0.79400
O2273       O  0.59813762  0.05334776  0.45013054    -0.82740
O2274       O  0.99834951  0.06624252  0.49013892    -0.80600
O2275       O  0.97602611  0.41194694  0.59216603    -0.79240
O2276       O  0.95281927  0.36262435  0.49098032    -0.80770
O2277       O  0.96481578  0.47461710  0.45069554    -0.82690
O2278       O  0.98153674  0.35579345  0.53013271    -0.79430
O2279       O  0.01269981  0.04100583  0.44808410    -0.82100
O2280       O  0.60663715  0.42432324  0.51009731    -0.77840
O2281       O  0.95480018  0.45761636  0.59314252    -0.77870
O2282       O  0.96288692  0.03790173  0.52939618    -0.77520
O2283       O  0.61676093  0.00566609  0.44854058    -0.81010
O2284       O  0.47966138  0.40278927  0.44820291    -0.80440
O2285       O  0.90564318  0.41306563  0.50908856    -0.78760
Eu2286     Eu  0.58538237  0.46940417  0.48964518     2.39770
Eu2287     Eu  0.98531080  0.49564516  0.55240429     2.39570
Eu2288     Eu  0.52363318  0.42083349  0.55353277     2.38400
Eu2289     Eu  0.55105639  0.04745345  0.48855494     2.39880
Eu2290     Eu  0.97242509  0.43422909  0.48879147     2.39790
O2291       O  0.98740846  0.49705982  0.50432392    -0.93180
O2292       O  0.52257771  0.42137830  0.50535019    -0.92070
C2293       C  0.51086043  0.40249468  0.43970661     1.01990
C2294       C  0.89151953  0.41843445  0.53188917     1.00710
C2295       C  0.60224947  0.40629959  0.53343882     1.00100
C2296       C  0.61647331  0.03627608  0.43879921     1.02110
C2297       C  0.96860976  0.05711260  0.50645528     1.01030
C2298       C  0.95619961  0.42768510  0.60308560     0.99880
C2299       C  0.96196525  0.34207074  0.50731304     0.99930
C2300       C  0.98137744  0.50993737  0.43909664     1.02550
H2301       H  0.94950644  0.40987504  0.54434477     0.29920
O2302       O  0.97357271  0.43234918  0.53723208    -1.05340
H2303       H  0.53634738  0.48330037  0.45366549     0.31970
O2304       O  0.53631740  0.48351789  0.47349322    -1.07900
C2305       C  0.59927036  0.16414387  0.87031753    -0.02180
C2306       C  0.58043630  0.12503758  0.85956968     0.07500
C2307       C  0.60094756  0.11269291  0.84209436    -0.02290
C2308       C  0.64078064  0.13959616  0.83545838    -0.02300
C2309       C  0.65977576  0.17848049  0.84664120     0.07630
C2310       C  0.63929287  0.19084445  0.86409830    -0.02490
Br2311     Br  0.66627218  0.24413258  0.87936400    -0.01040
Br2312     Br  0.57020322  0.18082008  0.89371141    -0.01110
Br2313     Br  0.66919889  0.12360538  0.81065911    -0.01070
Br2314     Br  0.57434721  0.05905003  0.82751625    -0.01060
C2315       C  0.50671982  0.20671796  0.03994244    -0.02180
C2316       C  0.51079567  0.19470631  0.01356713     0.07500
C2317       C  0.54212528  0.22117771  0.99598451    -0.02290
C2318       C  0.56872126  0.26018669  0.00451576    -0.02300
C2319       C  0.56426080  0.27237285  0.03071176     0.07630
C2320       C  0.53320030  0.24581349  0.04844265    -0.02490
Br2321     Br  0.52569819  0.26318235  0.08403034    -0.01040
Br2322     Br  0.46437831  0.17009186  0.06409722    -0.01110
Br2323     Br  0.61165184  0.29660365  0.98060873    -0.01070
Br2324     Br  0.54954308  0.20394839  0.96040863    -0.01060
C2325       C  0.93744463  0.27288795  0.18018272    -0.02180
C2326       C  0.91258034  0.28632152  0.19093469     0.07500
C2327       C  0.92725649  0.32737914  0.19557431    -0.02290
C2328       C  0.96687055  0.35518836  0.18897694    -0.02300
C2329       C  0.99180556  0.34173958  0.17834078     0.07630
C2330       C  0.97710655  0.30069333  0.17369579    -0.02490
Br2331     Br  0.51057225  0.28267148  0.15715578    -0.01040
Br2332     Br  0.91720504  0.21635568  0.17493976    -0.01110
Br2333     Br  0.98708955  0.41168520  0.19438199    -0.01070
Br2334     Br  0.89406082  0.34533220  0.21278955    -0.01060
C2335       C  0.80184766  0.47540449  0.49695798    -0.02180
C2336       C  0.82534223  0.01088030  0.51197458     0.07500
C2337       C  0.80978655  0.02055018  0.53477470    -0.02290
C2338       C  0.77022496  0.49467306  0.54257424    -0.02300
C2339       C  0.74681660  0.45904985  0.52766334     0.07630
C2340       C  0.76231308  0.44949501  0.50477243    -0.02490
Br2341     Br  0.72965559  0.40060327  0.48470312    -0.01040
Br2342     Br  0.82403896  0.46207550  0.46591344    -0.01110
Br2343     Br  0.74803723  0.50796306  0.57366887    -0.01070
Br2344     Br  0.84262099  0.06918421  0.55501682    -0.01060
C2345       C  0.69391904  0.09754957  0.68416530    -0.02180
C2346       C  0.73243373  0.10628579  0.69197928     0.07500
C2347       C  0.73976323  0.07448638  0.69541979    -0.02290
C2348       C  0.70807127  0.03490517  0.69413467    -0.02300
C2349       C  0.66937834  0.02629582  0.68673066     0.07630
C2350       C  0.66202090  0.05812729  0.68363809    -0.02490
Br2351     Br  0.60788629  0.04730724  0.67853404    -0.01040
Br2352     Br  0.68606479  0.13759752  0.66827797    -0.01110
Br2353     Br  0.71739257  0.99347218  0.70548697    -0.01070
Br2354     Br  0.79404225  0.08583383  0.70016795    -0.01060
C2355       C  0.83172561  0.38519892  0.36011890    -0.02180
C2356       C  0.84546319  0.36181372  0.34737513     0.07500
C2357       C  0.88621739  0.37789993  0.34099008    -0.02290
C2358       C  0.91347609  0.41768078  0.34764447    -0.02300
C2359       C  0.89969881  0.44107459  0.36036231     0.07630
C2360       C  0.85894923  0.42490136  0.36681634    -0.02490
Br2361     Br  0.84066853  0.45645373  0.38600709    -0.01040
Br2362     Br  0.77553305  0.36278965  0.36791842    -0.01110
Br2363     Br  0.96959470  0.44031167  0.33953429    -0.01070
Br2364     Br  0.90430664  0.34607496  0.32195657    -0.01060
C2365       C  0.97229769  0.07719399  0.21487860    -0.02180
C2366       C  0.96858727  0.10416613  0.19707989     0.07500
C2367       C  0.95329810  0.09252457  0.17047120    -0.02290
C2368       C  0.94132355  0.05376068  0.16169290    -0.02300
C2369       C  0.94657674  0.02745928  0.17910903     0.07630
C2370       C  0.96204240  0.03904619  0.20563076    -0.02490
Br2371     Br  0.96957560  0.00285665  0.22903305    -0.01040
Br2372     Br  0.99043426  0.09152615  0.25218488    -0.01110
Br2373     Br  0.91559597  0.03621311  0.12635581    -0.01070
Br2374     Br  0.94651979  0.12875514  0.14665355    -0.01060
C2375       C  0.59794544  0.13865862  0.32620988    -0.02180
C2376       C  0.60241320  0.16986236  0.34370409     0.07500
C2377       C  0.61964222  0.17492384  0.36978107    -0.02290
C2378       C  0.63309266  0.14922060  0.37821587    -0.02300
C2379       C  0.62724387  0.11719946  0.36112823     0.07630
C2380       C  0.60969346  0.11179237  0.33518968    -0.02490
Br2381     Br  0.60152668  0.06752212  0.31222423    -0.01040
Br2382     Br  0.57687187  0.13298756  0.28962789    -0.01110
Br2383     Br  0.66149141  0.15937859  0.41261609    -0.01070
Br2384     Br  0.62698623  0.21837977  0.39328037    -0.01060
C2385       C  0.81710244  0.03251515  0.03009869    -0.02180
C2386       C  0.77912320  0.01837168  0.01849984     0.07500
C2387       C  0.75368464  0.47728374  0.01323783    -0.02290
C2388       C  0.76631316  0.45020050  0.01974178    -0.02300
C2389       C  0.80435013  0.46435034  0.03125283     0.07630
C2390       C  0.82964292  0.00535732  0.03672857    -0.02490
Br2391     Br  0.88059449  0.02407755  0.05435106    -0.01040
Br2392     Br  0.85197284  0.08908518  0.03627380    -0.01110
Br2393     Br  0.73166726  0.39369014  0.01299223    -0.01070
Br2394     Br  0.70263315  0.45832380  0.99548496    -0.01060
C2395       C  0.74342362  0.21341321  0.50324571    -0.02180
C2396       C  0.76914825  0.19836740  0.50882657     0.07500
C2397       C  0.80688370  0.22275175  0.52067170    -0.02290
C2398       C  0.81869532  0.26221640  0.52751872    -0.02300
C2399       C  0.79280481  0.27716423  0.52217137     0.07630
C2400       C  0.75525452  0.25294496  0.51007921    -0.02490
Br2401     Br  0.72017522  0.27401341  0.50332254    -0.01040
Br2402     Br  0.69275088  0.18044755  0.48539397    -0.01110
Br2403     Br  0.86928315  0.29491885  0.54578606    -0.01070
Br2404     Br  0.84213886  0.20185661  0.52760226    -0.01060
C2405       C  0.92827334  0.27867670  0.68479419    -0.02180
C2406       C  0.96621551  0.29251279  0.69639630     0.07500
C2407       C  0.99187525  0.33353833  0.70168339    -0.02290
C2408       C  0.97977358  0.36095765  0.69488632    -0.02300
C2409       C  0.94201606  0.34713645  0.68305488     0.07630
C2410       C  0.91631475  0.30612494  0.67775668    -0.02490
Br2411     Br  0.86594920  0.28782865  0.65919415    -0.01040
Br2412     Br  0.89276363  0.22219182  0.67874111    -0.01110
Br2413     Br  0.51492643  0.41749482  0.70119261    -0.01070
Br2414     Br  0.54269094  0.35200137  0.71942849    -0.01060
C2415       C  0.59729487  0.38794410  0.82629425    -0.02180
C2416       C  0.60428034  0.36278707  0.84368277     0.07500
C2417       C  0.62259831  0.37616541  0.86933444    -0.02290
C2418       C  0.63506046  0.41533693  0.87739151    -0.02300
C2419       C  0.62802153  0.44051266  0.85998382     0.07630
C2420       C  0.60952066  0.42706739  0.83439698    -0.02490
Br2421     Br  0.60029071  0.46189513  0.81082413    -0.01040
Br2422     Br  0.56974493  0.36848784  0.79176401    -0.01110
Br2423     Br  0.66279228  0.43460239  0.91202462    -0.01070
Br2424     Br  0.63113605  0.34110346  0.89316713    -0.01060
C2425       C  0.67995596  0.06846350  0.20071030    -0.02180
C2426       C  0.68565048  0.08616032  0.17471161     0.07500
C2427       C  0.71717094  0.09110786  0.15745098    -0.02290
C2428       C  0.74293685  0.07785984  0.16620438    -0.02300
C2429       C  0.73724912  0.06019872  0.19222384     0.07630
C2430       C  0.70535582  0.05479742  0.20931829    -0.02490
Br2431     Br  0.69533206  0.02747865  0.24426284    -0.01040
Br2432     Br  0.63684531  0.06202259  0.22425749    -0.01110
Br2433     Br  0.78624918  0.08449553  0.14287550    -0.01070
Br2434     Br  0.72587433  0.11703965  0.12213276    -0.01060
C2435       C  0.64009981  0.42393429  0.33632662    -0.02180
C2436       C  0.66125682  0.40829730  0.35025669     0.07500
C2437       C  0.64355068  0.38077988  0.37179963    -0.02290
C2438       C  0.60415851  0.36844111  0.37932208    -0.02300
C2439       C  0.58299970  0.38392079  0.36523494     0.07630
C2440       C  0.60072165  0.41146149  0.34373600    -0.02490
Br2441     Br  0.57112648  0.43225291  0.32480761    -0.01040
Br2442     Br  0.66511707  0.46245056  0.30704171    -0.01110
Br2443     Br  0.57896554  0.33018154  0.40874152    -0.01070
Br2444     Br  0.67314441  0.35996950  0.39059992    -0.01060
C2445       C  0.80065625  0.21035819  0.02587049    -0.02180
C2446       C  0.82557281  0.24824082  0.01425941     0.07500
C2447       C  0.81115673  0.27457406  0.00885697    -0.02290
C2448       C  0.77163403  0.26304415  0.01543819    -0.02300
C2449       C  0.74663854  0.22502941  0.02689473     0.07630
C2450       C  0.76115580  0.19878329  0.03233647    -0.02490
Br2451     Br  0.72767868  0.14783237  0.04998629    -0.01040
Br2452     Br  0.82067525  0.17427961  0.03249683    -0.01110
Br2453     Br  0.75158859  0.29908090  0.00889662    -0.01070
Br2454     Br  0.84477459  0.32536763  0.99100369    -0.01060
C2455       C  0.54800244  0.27028605  0.50806430    -0.02180
C2456       C  0.50702580  0.24462672  0.51338505     0.07500
C2457       C  0.99306731  0.20669552  0.52518265    -0.02290
C2458       C  0.52037504  0.19456635  0.53222995    -0.02300
C2459       C  0.56137379  0.22031947  0.52701329     0.07630
C2460       C  0.57528087  0.25819383  0.51513178    -0.02490
Br2461     Br  0.63174170  0.29362796  0.50907049    -0.01040
Br2462     Br  0.56660520  0.32106320  0.48980536    -0.01110
Br2463     Br  0.00190937  0.14378624  0.55042557    -0.01070
Br2464     Br  0.93660421  0.17158508  0.53144357    -0.01060
C2465       C  0.88418560  0.42592170  0.82567879    -0.02180
C2466       C  0.85093541  0.41775636  0.84221422     0.07500
C2467       C  0.84353781  0.39668875  0.86701407    -0.02290
C2468       C  0.86920086  0.38312123  0.87521935    -0.02300
C2469       C  0.90278020  0.39175695  0.85888701     0.07630
C2470       C  0.91012951  0.41268440  0.83403776    -0.02490
Br2471     Br  0.95588910  0.42361244  0.81185038    -0.01580
Br2472     Br  0.89464222  0.45586384  0.79184864    -0.01110
Br2473     Br  0.85771448  0.35188792  0.90859067    -0.01070
Br2474     Br  0.79782609  0.38563588  0.88935381    -0.01060
C2475       C  0.96344190  0.04591998  0.68714277    -0.02180
C2476       C  0.98846741  0.08472437  0.67707742     0.07500
C2477       C  0.97494466  0.11218618  0.67399740    -0.02290
C2478       C  0.93605093  0.10093180  0.68181631    -0.02300
C2479       C  0.91095002  0.06204272  0.69182353     0.07630
C2480       C  0.92461758  0.03460354  0.69481428    -0.02490
Br2481     Br  0.89160569  0.48261138  0.71145260    -0.01040
Br2482     Br  0.98228904  0.00819361  0.69002889    -0.01110
Br2483     Br  0.91736649  0.13867991  0.67940983    -0.01070
Br2484     Br  0.50867516  0.16401752  0.65747232    -0.01060
C2485       C  0.80493608  0.99847013  0.71081931     0.02800
C2486       C  0.83809181  0.51975225  0.69368257    -0.13350
C2487       C  0.87293785  0.55176693  0.70399135     0.00300
C2488       C  0.87404078  0.56678601  0.72990240    -0.11880
C2489       C  0.84090534  0.54865722  0.74695017     0.02790
C2490       C  0.80597063  0.51377806  0.73763053    -0.11300
H2491       H  0.83923763  0.00841856  0.67355714     0.08380
H2492       H  0.90182225  0.59201237  0.73714299     0.05910
H2493       H  0.78062002  0.49827678  0.75126125     0.05760
C2494       C  0.59823805  0.63686739  0.66358418     0.02800
C2495       C  0.56200683  0.62249491  0.67763067    -0.13350
C2496       C  0.52652634  0.59427707  0.66550467     0.00300
C2497       C  0.52610204  0.57719373  0.64059000    -0.11880
C2498       C  0.56134855  0.58824543  0.62669316     0.02790
C2499       C  0.59789334  0.61927474  0.63777145    -0.11300
H2500       H  0.56042073  0.63568259  0.69687963     0.08380
H2501       H  0.49753651  0.55482936  0.63218511     0.05910
H2502       H  0.62529951  0.63011149  0.62619575     0.05760
C2503       C  0.79248202  0.97023154  0.83035600     0.02800
C2504       C  0.77226110  0.95064937  0.80570047    -0.13350
C2505       C  0.77666628  0.91886692  0.79471110     0.00300
C2506       C  0.80005759  0.90678313  0.80870580    -0.11880
C2507       C  0.82135744  0.92706022  0.83171094     0.02790
C2508       C  0.81700188  0.95763537  0.84298051    -0.11300
H2509       H  0.75466349  0.96085466  0.79478306     0.08380
H2510       H  0.80358468  0.88239102  0.80102360     0.05910
H2511       H  0.83511289  0.97315796  0.86070063     0.05760
C2512       C  0.95481347  0.83435366  0.87481347     0.02800
C2513       C  0.97188232  0.85234911  0.90059215    -0.13350
C2514       C  0.96935766  0.88591895  0.91018892     0.00300
C2515       C  0.95140304  0.90162077  0.89372844    -0.11880
C2516       C  0.93216988  0.88248031  0.86981204     0.02790
C2517       C  0.93505212  0.85036859  0.85972212    -0.11300
H2518       H  0.98510080  0.83931546  0.91356692     0.08380
H2519       H  0.94905324  0.92705219  0.90063955     0.05910
H2520       H  0.91851151  0.83584768  0.84125156     0.05760
C2521       C  0.95494120  0.80208045  0.49797927     0.02800
C2522       C  0.97374734  0.78509955  0.51306362    -0.13350
C2523       C  0.97856172  0.75472151  0.50187381     0.00300
C2524       C  0.96223134  0.73826669  0.47670567    -0.11880
C2525       C  0.94196899  0.75271604  0.46132877     0.02790
C2526       C  0.93814190  0.78501225  0.47192988    -0.11300
H2527       H  0.48844693  0.79790718  0.53240743     0.08380
H2528       H  0.96660714  0.71449797  0.46881014     0.05910
H2529       H  0.92404791  0.79776763  0.45957114     0.05760
C2530       C  0.61825572  0.66719074  0.54230038     0.02800
C2531       C  0.59699724  0.68190886  0.52760210    -0.13350
C2532       C  0.59006395  0.71089012  0.53898071     0.00300
C2533       C  0.60617422  0.72804068  0.56407258    -0.11880
C2534       C  0.62886882  0.71608607  0.57900077     0.02790
C2535       C  0.63483872  0.68506904  0.56822415    -0.11300
H2536       H  0.58243490  0.66849739  0.50833781     0.08380
H2537       H  0.60020498  0.75071106  0.57207516     0.05910
H2538       H  0.65075279  0.67399932  0.58029977     0.05760
C2539       C  0.93591298  0.80050577  0.99908601     0.02800
C2540       C  0.89987859  0.78601021  0.01382576    -0.13350
C2541       C  0.86375231  0.75703286  0.00255976     0.00300
C2542       C  0.86261441  0.73957805  0.97760491    -0.11880
C2543       C  0.89727696  0.75146645  0.96263467     0.02790
C2544       C  0.93442799  0.78250383  0.97324744    -0.11300
H2545       H  0.89882667  0.79967083  0.03298458     0.08380
H2546       H  0.83385401  0.71690925  0.96964926     0.05910
H2547       H  0.96137743  0.79352300  0.96109476     0.05760
C2548       C  0.63704574  0.66673322  0.04290903     0.02800
C2549       C  0.63762488  0.68391935  0.06895810    -0.13350
C2550       C  0.67374287  0.71698413  0.07909839     0.00300
C2551       C  0.70819096  0.73206597  0.06329039    -0.11880
C2552       C  0.70793346  0.71538122  0.03818406     0.02790
C2553       C  0.67259479  0.68436041  0.02739322    -0.11300
H2554       H  0.61107399  0.67069157  0.08167366     0.08380
H2555       H  0.73634562  0.75625782  0.07095504     0.05910
H2556       H  0.67438523  0.67139945  0.00810732     0.05760
C2557       C  0.97215443  0.83137554  0.37709252     0.02800
C2558       C  0.00914609  0.84531035  0.36386230    -0.13350
C2559       C  0.54420659  0.87512832  0.37560054     0.00300
C2560       C  0.54343724  0.89389037  0.39948322    -0.11880
C2561       C  0.00783005  0.88152429  0.41350725     0.02790
C2562       C  0.97159341  0.84996180  0.40226576    -0.11300
H2563       H  0.01166060  0.83090742  0.34550590     0.08380
H2564       H  0.57156285  0.91750157  0.40762252     0.05910
H2565       H  0.94385396  0.83899224  0.41346713     0.05760
C2566       C  0.77058663  0.96575587  0.33409273     0.02800
C2567       C  0.73507446  0.94876376  0.34962283    -0.13350
C2568       C  0.69980772  0.91704363  0.33931077     0.00300
C2569       C  0.69941546  0.89920548  0.31462703    -0.11880
C2570       C  0.73325406  0.91503979  0.29818979     0.02790
C2571       C  0.76946749  0.94836457  0.30802829    -0.11300
H2572       H  0.73335358  0.96254327  0.36854193     0.08380
H2573       H  0.67132783  0.87445862  0.30735084     0.05910
H2574       H  0.79567696  0.96179835  0.29497499     0.05760
C2575       C  0.62757504  0.63903476  0.16273323     0.02800
C2576       C  0.65265599  0.62691865  0.17502166    -0.13350
C2577       C  0.65616505  0.59563062  0.16418882     0.00300
C2578       C  0.63367498  0.57442796  0.14182039    -0.11880
C2579       C  0.61049330  0.58665868  0.12768156     0.02790
C2580       C  0.60673689  0.61899903  0.13833766    -0.11300
H2581       H  0.67159574  0.64313382  0.19226403     0.08380
H2582       H  0.63636617  0.54934916  0.13456208     0.05910
H2583       H  0.58920483  0.62924186  0.12736319     0.05760
C2584       C  0.78899057  0.00231724  0.20827171     0.02800
C2585       C  0.80579581  0.52014151  0.23408873    -0.13350
C2586       C  0.80333483  0.55374898  0.24357572     0.00300
C2587       C  0.78631420  0.57007976  0.22682311    -0.11880
C2588       C  0.76647786  0.55059767  0.20315533     0.02790
C2589       C  0.76893158  0.51811955  0.19326629    -0.11300
H2590       H  0.81875240  0.00695302  0.24716784     0.08380
H2591       H  0.78461438  0.59595328  0.23355120     0.05910
H2592       H  0.75206909  0.00331951  0.17496147     0.05760
C2593       C  0.54991085  0.75183100  0.83124824     0.02800
C2594       C  0.56369090  0.78884190  0.84439477    -0.13350
C2595       C  0.59538673  0.82368062  0.83366175     0.00300
C2596       C  0.61587985  0.82244722  0.81083015    -0.11880
C2597       C  0.60225875  0.78727928  0.79602795     0.02790
C2598       C  0.56926719  0.75123796  0.80644004    -0.11300
H2599       H  0.54804345  0.79160094  0.86195495     0.08380
H2600       H  0.64108444  0.85023796  0.80350703     0.05910
H2601       H  0.55783378  0.72375679  0.79485292     0.05760
C2602       C  0.68509840  0.55069402  0.87453073     0.02800
C2603       C  0.66926475  0.51451036  0.85986356    -0.13350
C2604       C  0.63696302  0.97956433  0.87012675     0.00300
C2605       C  0.61741347  0.98025466  0.89363848    -0.11880
C2606       C  0.63357396  0.51410642  0.90996105     0.02790
C2607       C  0.66716383  0.55013385  0.90019832    -0.11300
H2608       H  0.68408552  0.51216278  0.84167876     0.08380
H2609       H  0.59173070  0.95258621  0.90065814     0.05910
H2610       H  0.68035682  0.57656607  0.91302796     0.05760
C2611       C  0.88681671  0.90117748  0.66624586     0.02800
C2612       C  0.90296703  0.88195981  0.68181179    -0.13350
C2613       C  0.93268514  0.87583086  0.67092852     0.00300
C2614       C  0.94940603  0.89124755  0.64559529    -0.11880
C2615       C  0.93580280  0.91180724  0.62976880     0.02790
C2616       C  0.90404844  0.91684089  0.64001295    -0.11300
H2617       H  0.88992649  0.86790333  0.70131233     0.08380
H2618       H  0.97265198  0.88590627  0.63794789     0.05910
H2619       H  0.89180975  0.93105585  0.62725766     0.05760
C2620       C  0.52237936  0.73855636  0.71104669     0.02800
C2621       C  0.50658955  0.75896490  0.69646101    -0.13350
C2622       C  0.97624717  0.76377657  0.70768386     0.00300
C2623       C  0.95891736  0.74620713  0.73242829    -0.11880
C2624       C  0.97222893  0.72445942  0.74728398     0.02790
C2625       C  0.50441401  0.72053557  0.73666055    -0.11300
H2626       H  0.52007645  0.77453829  0.67744813     0.08380
H2627       H  0.93519229  0.75059624  0.74034999     0.05910
H2628       H  0.51627641  0.70523498  0.74863317     0.05760
C2629       C  0.75935380  0.65936077  0.49809760     0.02800
C2630       C  0.77720472  0.65861326  0.47375649    -0.13350
C2631       C  0.76577195  0.62277831  0.46026780     0.00300
C2632       C  0.73463144  0.58644923  0.47182483    -0.11880
C2633       C  0.71609117  0.58707148  0.49702694     0.02790
C2634       C  0.73011008  0.62414793  0.51020928    -0.11300
H2635       H  0.80016291  0.68686696  0.46523678     0.08380
H2636       H  0.72405785  0.55853921  0.46091005     0.05910
H2637       H  0.71622358  0.62657158  0.52887096     0.05760
C2638       C  0.85065966  0.88566330  0.54042408     0.02800
C2639       C  0.83250976  0.85108353  0.52401157    -0.13350
C2640       C  0.80198271  0.81506689  0.53449729     0.00300
C2641       C  0.78594199  0.81319044  0.56021679    -0.11880
C2642       C  0.80140859  0.84672724  0.57689513     0.02790
C2643       C  0.83419025  0.88346900  0.56704825    -0.11300
H2644       H  0.84497258  0.85043184  0.50422163     0.08380
H2645       H  0.76212764  0.78455802  0.56763092     0.05910
H2646       H  0.84789624  0.90927052  0.58045181     0.05760
C2647       C  0.72177868  0.56971194  0.00043060     0.02800
C2648       C  0.73922366  0.55234800  0.01665617    -0.13350
C2649       C  0.76942919  0.54665963  0.00606888     0.00300
C2650       C  0.78538079  0.56093632  0.98035080    -0.11880
C2651       C  0.77038289  0.57959374  0.96388064     0.02790
C2652       C  0.73824440  0.58415152  0.97386707    -0.11300
H2653       H  0.72670845  0.53910793  0.03644453     0.08380
H2654       H  0.80894768  0.55598158  0.97284523     0.05910
H2655       H  0.72504915  0.59693209  0.96063194     0.05760
C2656       C  0.85773619  0.90691086  0.04408238     0.02800
C2657       C  0.84362581  0.92956395  0.03047354    -0.13350
C2658       C  0.81448033  0.93563949  0.04240408     0.00300
C2659       C  0.79698896  0.91771283  0.06703324    -0.11880
C2660       C  0.80853868  0.89377766  0.08093102     0.02790
C2661       C  0.83943864  0.88832721  0.06952597    -0.11300
H2662       H  0.85732919  0.94544156  0.01158996     0.08380
H2663       H  0.77412368  0.92307377  0.07541924     0.05910
H2664       H  0.85000275  0.87121805  0.08071663     0.05760
C2665       C  0.68784175  0.56840695  0.37641671     0.02800
C2666       C  0.67099002  0.58759172  0.36160939    -0.13350
C2667       C  0.63771425  0.58837092  0.37159843     0.00300
C2668       C  0.61856461  0.56772561  0.39514709    -0.11880
C2669       C  0.63565334  0.55119597  0.41170336     0.02790
C2670       C  0.67005733  0.55038613  0.40210706    -0.11300
H2671       H  0.68548300  0.60504637  0.34339130     0.08380
H2672       H  0.59216888  0.56835134  0.40195465     0.05910
H2673       H  0.68377496  0.53776681  0.41498070     0.05760
C2674       C  0.55160924  0.73023517  0.33112151     0.02800
C2675       C  0.56291226  0.70461363  0.34379030    -0.13350
C2676       C  0.59387563  0.70014994  0.33317516     0.00300
C2677       C  0.61572652  0.72251011  0.31088630    -0.11880
C2678       C  0.60382965  0.74544931  0.29619987     0.02790
C2679       C  0.57182191  0.75007484  0.30649982    -0.11300
H2680       H  0.54622088  0.68596648  0.36106777     0.08380
H2681       H  0.64067581  0.71945071  0.30387671     0.05910
H2682       H  0.56190618  0.76753280  0.29504663     0.05760
C2683       C  0.96901463  0.67897452  0.24458076     0.02800
C2684       C  0.95571430  0.64420201  0.22949819    -0.13350
C2685       C  0.97744365  0.64326033  0.20733911     0.00300
C2686       C  0.50940677  0.67852083  0.19701175    -0.11880
C2687       C  0.52193898  0.71554999  0.20991688     0.02790
C2688       C  0.50196041  0.71541014  0.23453967    -0.11300
H2689       H  0.93004201  0.61640782  0.23633916     0.08380
H2690       H  0.52597659  0.67625710  0.17984587     0.05910
H2691       H  0.51282351  0.74272576  0.24624929     0.05760
C2692       C  0.88606129  0.91767863  0.16435873     0.02800
C2693       C  0.90281368  0.95397956  0.17886180    -0.13350
C2694       C  0.93630609  0.98805318  0.16889701     0.00300
C2695       C  0.95579711  0.98626653  0.14570347    -0.11880
C2696       C  0.93874835  0.95227766  0.12942338     0.02790
C2697       C  0.90414294  0.91707158  0.13900558    -0.11300
H2698       H  0.88808398  0.95715594  0.19680429     0.08380
H2699       H  0.98235308  0.01331076  0.13886322     0.05910
H2700       H  0.89046797  0.89049962  0.12632662     0.05760
C2701       C  0.78788825  0.75144457  0.33225710     0.02800
C2702       C  0.80939867  0.78753441  0.34693560    -0.13350
C2703       C  0.81651016  0.82356278  0.33555111     0.00300
C2704       C  0.80033879  0.82460590  0.31051887    -0.11880
C2705       C  0.77770937  0.78986633  0.29555758     0.02790
C2706       C  0.77149192  0.75276828  0.30631767    -0.11300
H2707       H  0.82401501  0.78871224  0.36617854     0.08380
H2708       H  0.80637637  0.85335600  0.30253644     0.05910
H2709       H  0.75561990  0.72576455  0.29419998     0.05760
C2710       C  0.95156474  0.55077054  0.37631822     0.02800
C2711       C  0.93280764  0.51506105  0.36103229    -0.13350
C2712       C  0.92836284  0.97972739  0.37186182     0.00300
C2713       C  0.94491891  0.97938078  0.39689881    -0.11880
C2714       C  0.96482223  0.51390026  0.41255763     0.02790
C2715       C  0.96836930  0.55017260  0.40229381    -0.11300
H2716       H  0.91788179  0.51326576  0.34181063     0.08380
H2717       H  0.94082517  0.95116335  0.40455264     0.05910
H2718       H  0.98232781  0.57687957  0.41483001     0.05760
C2719       C  0.78636520  0.71719091  0.70902039     0.02800
C2720       C  0.77154665  0.68246133  0.69284293    -0.13350
C2721       C  0.76011332  0.64534130  0.70506185     0.00300
C2722       C  0.77064045  0.64427789  0.73231329    -0.11880
C2723       C  0.79373009  0.67912009  0.74720674     0.02790
C2724       C  0.80018617  0.71597821  0.73597888    -0.11300
H2725       H  0.76519036  0.68369550  0.67137630     0.08380
H2726       H  0.76140971  0.61554865  0.74180956     0.05910
H2727       H  0.81413348  0.74276801  0.74842887     0.05760
C2728       C  0.61615644  0.91623926  0.66769494     0.02800
C2729       C  0.63030479  0.95030509  0.68452451    -0.13350
C2730       C  0.64195007  0.98786338  0.67293312     0.00300
C2731       C  0.63246287  0.99012871  0.64558237    -0.11880
C2732       C  0.61051524  0.95601367  0.62985991     0.02790
C2733       C  0.60374527  0.91872359  0.64052683    -0.11300
H2734       H  0.63665319  0.94852064  0.70594530     0.08380
H2735       H  0.64184519  0.51918386  0.63656596     0.05910
H2736       H  0.59072658  0.89256168  0.62744397     0.05760
C2737       C  0.93537121  0.56365624  0.49722493     0.02800
C2738       C  0.89902253  0.54290605  0.51169752    -0.13350
C2739       C  0.86432179  0.54006105  0.50122733     0.00300
C2740       C  0.86508796  0.55982837  0.47743545    -0.11880
C2741       C  0.89974769  0.57985962  0.46192080     0.02790
C2742       C  0.93559785  0.58241518  0.47192279    -0.11300
H2743       H  0.89642755  0.52586686  0.53005621     0.08380
H2744       H  0.83734333  0.55721394  0.47020034     0.05910
H2745       H  0.96257237  0.59710520  0.45967108     0.05760
C2746       C  0.63664876  0.90152124  0.54258719     0.02800
C2747       C  0.67280840  0.92361708  0.52808600    -0.13350
C2748       C  0.70848680  0.92921553  0.53891530     0.00300
C2749       C  0.70906323  0.91074465  0.56304458    -0.11880
C2750       C  0.67460668  0.88926510  0.57847726     0.02790
C2751       C  0.63777550  0.88422334  0.56821662    -0.11300
H2752       H  0.67433752  0.93967932  0.50944022     0.08380
H2753       H  0.73749289  0.91529180  0.57046703     0.05910
H2754       H  0.61090243  0.86864810  0.58051125     0.05760
C2755       C  0.80294043  0.73252863  0.20753005     0.02800
C2756       C  0.83838989  0.75137982  0.19193128    -0.13350
C2757       C  0.87426942  0.75743773  0.20289105     0.00300
C2758       C  0.87539084  0.74215732  0.22833928    -0.11880
C2759       C  0.84114590  0.72186608  0.24418049     0.02790
C2760       C  0.80441418  0.71698885  0.23384882    -0.11300
H2761       H  0.83950469  0.76538971  0.17239996     0.08380
H2762       H  0.90393069  0.74745833  0.23610586     0.05910
H2763       H  0.77794358  0.70306486  0.24664517     0.05760
C2764       C  0.60251406  0.89711069  0.16452641     0.02800
C2765       C  0.60264115  0.91480425  0.13872268    -0.13350
C2766       C  0.56640744  0.91015517  0.12764870     0.00300
C2767       C  0.53112268  0.88794446  0.14225987    -0.11880
C2768       C  0.53075849  0.87075069  0.16721422     0.02790
C2769       C  0.56603971  0.87629914  0.17885157    -0.11300
H2770       H  0.63001195  0.93042578  0.12694302     0.08380
H2771       H  0.50294476  0.88298603  0.13400738     0.05910
H2772       H  0.56390996  0.86094898  0.19797042     0.05760
C2773       C  0.95458324  0.58401165  0.99915546     0.02800
C2774       C  0.97731654  0.62052567  0.01309330    -0.13350
C2775       C  0.98051064  0.65576864  0.00305115     0.00300
C2776       C  0.95914187  0.65525954  0.98016068    -0.11880
C2777       C  0.93895183  0.62097326  0.96436361     0.02790
C2778       C  0.93579285  0.58458400  0.97409078    -0.11300
H2779       H  0.49540393  0.62264209  0.03069967     0.08380
H2780       H  0.96151953  0.68313083  0.97334261     0.05910
H2781       H  0.92058979  0.55772560  0.96176321     0.05760
C2782       C  0.61732970  0.88325782  0.04370286     0.02800
C2783       C  0.63700584  0.88426756  0.06871431    -0.13350
C2784       C  0.63517790  0.84877643  0.07887996     0.00300
C2785       C  0.61581163  0.81397335  0.06347958    -0.11880
C2786       C  0.59365330  0.81194198  0.04071704     0.02790
C2787       C  0.59528976  0.84624570  0.03026245    -0.11300
H2788       H  0.65179281  0.91152920  0.08065845     0.08380
H2789       H  0.61465811  0.78675646  0.07055734     0.05910
H2790       H  0.57673119  0.84300468  0.01267896     0.05760
C2791       C  0.76945776  0.73174292  0.83170958     0.02800
C2792       C  0.73346239  0.71203225  0.84661462    -0.13350
C2793       C  0.69844654  0.70794300  0.83574329     0.00300
C2794       C  0.69851899  0.72560638  0.81107368    -0.11880
C2795       C  0.73311375  0.74559642  0.79547446     0.02790
C2796       C  0.76923065  0.74911715  0.80585427    -0.11300
H2797       H  0.73128288  0.69627385  0.86554864     0.08380
H2798       H  0.67044689  0.72177510  0.80346163     0.05910
H2799       H  0.79608495  0.76339731  0.79346247     0.05760
C2800       C  0.97057040  0.56811364  0.87550026     0.02800
C2801       C  0.50639716  0.58924683  0.86046595    -0.13350
C2802       C  0.54232879  0.59534054  0.87121893     0.00300
C2803       C  0.54353957  0.57854523  0.89601706    -0.11880
C2804       C  0.50920266  0.55693346  0.91160130     0.02790
C2805       C  0.97217975  0.55156660  0.90137845    -0.11300
H2806       H  0.50753911  0.60440890  0.84145684     0.08380
H2807       H  0.57218370  0.58384816  0.90356320     0.05910
H2808       H  0.94548962  0.53625751  0.91387920     0.05760
O2809       O  0.87976758  0.58741285  0.78500115    -0.80460
O2810       O  0.74620486  0.61264859  0.88284747    -0.82020
O2811       O  0.78722754  0.52916399  0.82419187    -0.79040
O2812       O  0.79541166  0.63966159  0.78487675    -0.77420
O2813       O  0.84297702  0.70606325  0.78232244    -0.79210
O2814       O  0.81457114  0.52172969  0.86384149    -0.80150
O2815       O  0.73919174  0.57888781  0.84281353    -0.81470
O2816       O  0.81345608  0.56861636  0.78246015    -0.81760
Eu2817     Eu  0.80570383  0.60056306  0.82249781     2.39200
O2818       O  0.82015323  0.66319667  0.83832363    -0.89270
O2819       O  0.85601321  0.58794769  0.83866274    -0.92870
C2820       C  0.84454058  0.56844009  0.77357786     1.01820
C2821       C  0.72529369  0.58405029  0.86573817     1.01630
C2822       C  0.79652117  0.50867124  0.84047741     1.01580
C2823       C  0.81129478  0.67504538  0.77349127     0.99440
H2824       H  0.78311101  0.57627284  0.87815952     0.29190
O2825       O  0.80693377  0.59890111  0.87093529    -1.01660
H2826       H  0.86925065  0.65011503  0.78690580     0.29220
O2827       O  0.86930257  0.65010968  0.80674283    -1.04200
O2828       O  0.85751739  0.71016118  0.92515614    -0.81430
O2829       O  0.99008306  0.68840196  0.82449766    -0.80960
O2830       O  0.80964956  0.57873082  0.92586490    -0.79400
O2831       O  0.83213864  0.73404619  0.82454287    -0.82740
O2832       O  0.93202602  0.72276888  0.78499236    -0.80600
O2833       O  0.90765896  0.56539415  0.88371303    -0.79240
O2834       O  0.93892015  0.66090147  0.92635669    -0.80770
O2835       O  0.95516277  0.77305946  0.88335114    -0.82690
O2836       O  0.89338391  0.59370323  0.92777594    -0.79430
O2837       O  0.92897561  0.78019412  0.84304034    -0.82100
O2838       O  0.78832724  0.62436226  0.92693396    -0.77840
O2839       O  0.94037918  0.59108298  0.84311387    -0.77870
O2840       O  0.95073236  0.67529722  0.78229517    -0.77520
O2841       O  0.79667093  0.70527095  0.86373372    -0.81010
O2842       O  0.92442072  0.73143541  0.92701140    -0.80440
O2843       O  0.99728570  0.72299186  0.86415219    -0.78760
Eu2844     Eu  0.81880974  0.66234183  0.88640987     2.39770
Eu2845     Eu  0.91867649  0.63601142  0.82271793     2.39570
Eu2846     Eu  0.85670182  0.58688575  0.88676652     2.38400
Eu2847     Eu  0.88336037  0.71365937  0.82242743     2.39880
Eu2848     Eu  0.93198988  0.70034486  0.88685397     2.39790
O2849       O  0.93124451  0.69907168  0.83869210    -0.93180
O2850       O  0.86897462  0.64977982  0.90181456    -0.92070
C2851       C  0.89295804  0.73020109  0.93639492     1.01990
C2852       C  0.51064174  0.71792680  0.84093486     1.00710
C2853       C  0.79000618  0.59462579  0.93690646     1.00100
C2854       C  0.80251259  0.72488807  0.84092908     1.02110
C2855       C  0.95107957  0.70674105  0.77346333     1.01030
C2856       C  0.93609879  0.57302639  0.86644736     0.99880
C2857       C  0.92301826  0.62532425  0.93765959     0.99930
C2858       C  0.94783055  0.79406802  0.86609396     1.02550
H2859       H  0.94291294  0.63796313  0.87846543     0.29920
O2860       O  0.92015202  0.63866544  0.87116965    -1.05340
H2861       H  0.88187910  0.73595297  0.87795237     0.31970
O2862       O  0.88072130  0.71217342  0.87082492    -1.07900
O2863       O  0.96845765  0.92511369  0.94829984    -0.80460
O2864       O  0.61998386  0.94612650  0.05042901    -0.82020
O2865       O  0.59561016  0.97407736  0.94843899    -0.79040
O2866       O  0.99902357  0.86094900  0.99104249    -0.77420
O2867       O  0.96645623  0.85316540  0.03174044    -0.79210
O2868       O  0.61737061  0.54128907  0.94736255    -0.80150
O2869       O  0.59266975  0.91123697  0.01083389    -0.81470
O2870       O  0.01368659  0.90330906  0.94726298    -0.81760
Eu2871     Eu  0.55010559  0.93378496  0.98804513     2.39200
O2872       O  0.55089164  0.93498882  0.03609352    -0.89270
O2873       O  0.53788508  0.98448483  0.97322306    -0.92870
C2874       C  0.98435344  0.90544521  0.93717070     1.01820
C2875       C  0.61117551  0.91658713  0.03405331     1.01630
C2876       C  0.61489561  0.00970220  0.93718051     1.01580
C2877       C  0.97061664  0.83974691  0.00830718     0.99440
H2878       H  0.62361012  0.99714041  0.99643489     0.29190
O2879       O  0.59988725  0.99589356  0.00373912    -1.01660
H2880       H  0.96368759  0.89773067  0.99609874     0.29220
O2881       O  0.98645398  0.92133160  0.00337159    -1.04200
O2882       O  0.60845604  0.54632149  0.08992686    -0.81430
O2883       O  0.95259641  0.52158018  0.99085693    -0.80960
O2884       O  0.66053946  0.57007904  0.99189846    -0.79400
O2885       O  0.52814004  0.91141834  0.08945273    -0.82740
O2886       O  0.91706211  0.90248374  0.05034969    -0.80600
O2887       O  0.54908312  0.55617771  0.94940482    -0.79240
O2888       O  0.57495372  0.60497226  0.05043031    -0.80770
O2889       O  0.97602620  0.49164948  0.09086973    -0.82690
O2890       O  0.61004454  0.61283517  0.01093223    -0.79430
O2891       O  0.95740527  0.92522385  0.09292056    -0.82100
O2892       O  0.66761165  0.54373311  0.03214278    -0.77840
O2893       O  0.48221817  0.50990416  0.94749255    -0.77870
O2894       O  0.90928063  0.92906518  0.01044183    -0.77520
O2895       O  0.59418949  0.95954825  0.09271466    -0.81010
O2896       O  0.56080717  0.56466267  0.09309162    -0.80440
O2897       O  0.97746122  0.55385379  0.03169228    -0.78760
Eu2898     Eu  0.60091495  0.99836607  0.05217922     2.39770
Eu2899     Eu  0.97472745  0.97133351  0.98778076     2.39570
Eu2900     Eu  0.58796319  0.54758358  0.98848637     2.38400
Eu2901     Eu  0.98813494  0.91987163  0.05174728     2.39880
Eu2902     Eu  0.52283706  0.53285179  0.05240378     2.39790
O2903       O  0.97519710  0.97024298  0.03596268    -0.93180
O2904       O  0.58650833  0.54677605  0.03664042    -0.92070
C2905       C  0.59226590  0.56506922  0.10175342     1.01990
C2906       C  0.95983091  0.54975545  0.00820677     1.00710
C2907       C  0.68150860  0.56265253  0.00911064     1.00100
C2908       C  0.56311553  0.92778085  0.10132341     1.02110
C2909       C  0.89634857  0.91131924  0.03396121     1.01030
C2910       C  0.51364851  0.54035949  0.93806011     0.99880
C2911       C  0.60428492  0.62620122  0.03388213     0.99930
C2912       C  0.95780682  0.95626598  0.10242064     1.02550
H2913       H  0.52514449  0.55741174  0.99690473     0.29920
O2914       O  0.52596142  0.53458729  0.00402448    -1.05340
H2915       H  0.53739341  0.98323463  0.08741967     0.31970
O2916       O  0.53726912  0.98348441  0.06759212    -1.07900
O2917       O  0.94193004  0.71386415  0.42313966    -0.80460
O2918       O  0.78488267  0.68841029  0.32441793    -0.82020
O2919       O  0.90822868  0.77187008  0.38334614    -0.79040
O2920       O  0.80680665  0.66067326  0.42249395    -0.77420
O2921       O  0.78816141  0.59451351  0.42619833    -0.79210
O2922       O  0.94345648  0.77912887  0.34398727    -0.80150
O2923       O  0.81049843  0.72140503  0.36488581    -0.81470
O2924       O  0.89402652  0.73196899  0.42575974    -0.81760
Eu2925     Eu  0.85577168  0.70028746  0.38508708     2.39200
O2926       O  0.80764061  0.63740386  0.36943317    -0.89270
O2927       O  0.91911129  0.71350366  0.36927638    -0.92870
C2928       C  0.92537520  0.73241644  0.43474427     1.01820
C2929       C  0.79247543  0.71692862  0.34157695     1.01630
C2930       C  0.93811574  0.79243255  0.36712157     1.01580
C2931       C  0.78762417  0.62574631  0.43445751     0.99440
H2932       H  0.85754435  0.72430962  0.32949352     0.29190
O2933       O  0.85841633  0.70156439  0.33672903    -1.01660
H2934       H  0.86987584  0.65133192  0.42087536     0.29220
O2935       O  0.86993002  0.65110800  0.40104407    -1.04200
O2936       O  0.80132573  0.59214931  0.28175940    -0.81430
O2937       O  0.95292196  0.61317332  0.38369093    -0.80960
O2938       O  0.88099574  0.72178250  0.28212993    -0.79400
O2939       O  0.74886702  0.56751637  0.38377988    -0.82740
O2940       O  0.86077448  0.57998179  0.42389967    -0.80600
O2941       O  0.99259525  0.73502172  0.32378515    -0.79240
O2942       O  0.92872093  0.63971084  0.28261132    -0.80770
O2943       O  0.83214791  0.52745889  0.32550606    -0.82690
O2944       O  0.94999520  0.70672602  0.28032669    -0.79430
O2945       O  0.79870850  0.52028343  0.36572449    -0.82100
O2946       O  0.81394526  0.67598453  0.28074727    -0.77840
O2947       O  0.00022818  0.71025914  0.36463583    -0.77870
O2948       O  0.92712576  0.62774630  0.42629120    -0.77520
O2949       O  0.74151695  0.59496915  0.34412912    -0.81010
O2950       O  0.84640206  0.57014164  0.28113838    -0.80440
O2951       O  0.92558648  0.57833325  0.34413699    -0.78760
Eu2952     Eu  0.80684362  0.63791702  0.32128390     2.39770
Eu2953     Eu  0.93359920  0.66548625  0.38544533     2.39570
Eu2954     Eu  0.92025421  0.71385757  0.32115987     2.38400
Eu2955     Eu  0.82039671  0.58720755  0.38588565     2.39880
Eu2956     Eu  0.88219397  0.60022343  0.32201708     2.39790
O2957       O  0.88313421  0.60167508  0.37013174    -0.93180
O2958       O  0.86980996  0.65053554  0.30657018    -0.92070
C2959       C  0.81745973  0.57263358  0.27075809     1.01990
C2960       C  0.94452678  0.58385155  0.36715592     1.00710
C2961       C  0.84546038  0.70600793  0.27096695     1.00100
C2962       C  0.72806362  0.57597881  0.36722357     1.02110
C2963       C  0.89601199  0.59657138  0.43543471     1.01030
C2964       C  0.01343107  0.72728363  0.34091356     0.99880
C2965       C  0.94829016  0.67504383  0.27096465     0.99930
C2966       C  0.80372446  0.50634963  0.34273366     1.02550
H2967       H  0.95515818  0.66270253  0.32987697     0.29920
O2968       O  0.93182399  0.66226415  0.33714307    -1.05340
H2969       H  0.79616033  0.56433039  0.33015099     0.31970
O2970       O  0.81872867  0.58814246  0.33739909    -1.07900
O2971       O  0.74512359  0.93583912  0.71850438    -0.80460
O2972       O  0.76192441  0.80614418  0.61504144    -0.82020
O2973       O  0.82611060  0.90251930  0.65795636    -0.79040
O2974       O  0.71446254  0.88867698  0.61617616    -0.77420
O2975       O  0.64737336  0.84321821  0.61480121    -0.79210
O2976       O  0.83313742  0.87641217  0.69834723    -0.80150
O2977       O  0.78394867  0.87337700  0.61417623    -0.81470
O2978       O  0.77823779  0.94563344  0.67788001    -0.81760
Eu2979     Eu  0.75375210  0.88048262  0.65497253     2.39200
O2980       O  0.70300481  0.81788661  0.63980114    -0.89270
O2981       O  0.75170168  0.87852342  0.70302021    -0.92870
C2982       C  0.77361502  0.95773587  0.70167969     1.01820
C2983       C  0.78185400  0.84189191  0.60401329     1.01630
C2984       C  0.84695875  0.89495465  0.67515802     1.01580
C2985       C  0.67894151  0.87305525  0.60502596     0.99440
H2986       H  0.78881484  0.82962510  0.66294059     0.29190
O2987       O  0.76529518  0.82873774  0.67030438    -1.01660
H2988       H  0.69092402  0.89187420  0.66399245     0.29220
O2989       O  0.69210586  0.86917568  0.67101135    -1.04200
O2990       O  0.66086894  0.69661091  0.65651674    -0.81430
O2991       O  0.64152543  0.82598105  0.75776919    -0.80960
O2992       O  0.78679621  0.77915290  0.71594555    -0.79400
O2993       O  0.63095656  0.75763118  0.61661520    -0.82740
O2994       O  0.61718835  0.85523262  0.65942746    -0.80600
O2995       O  0.77455769  0.87879660  0.75666102    -0.79240
O2996       O  0.69398872  0.74542035  0.75727731    -0.80770
O2997       O  0.58251876  0.73565301  0.71794370    -0.82690
O2998       O  0.76040222  0.79292883  0.75947412    -0.79430
O2999       O  0.57533752  0.76346776  0.67843823    -0.82100
O3000       O  0.75724640  0.74285276  0.67721502    -0.77840
O3001       O  0.72705842  0.89738048  0.76020539    -0.77870
O3002       O  0.64473628  0.88959391  0.69916666    -0.77520
O3003       O  0.67644665  0.73621542  0.61446977    -0.81010
O3004       O  0.62959881  0.68708871  0.69798912    -0.80440
O3005       O  0.62287907  0.75969687  0.76057456    -0.78760
Eu3006     Eu  0.71530463  0.76718360  0.65465388     2.39770
Eu3007     Eu  0.68899690  0.86627262  0.71948251     2.39570
Eu3008     Eu  0.76656457  0.83070710  0.71870181     2.38400
Eu3009     Eu  0.64040807  0.80586339  0.65543839     2.39880
Eu3010     Eu  0.65371082  0.75345876  0.71938665     2.39790
O3011       O  0.64083366  0.80388990  0.70359233    -0.93180
O3012       O  0.71609414  0.76706014  0.70297099    -0.92070
C3013       C  0.63269228  0.67507033  0.67372236     1.01990
C3014       C  0.62292547  0.79084229  0.76959466     1.00710
C3015       C  0.77780895  0.74937501  0.69969957     1.00100
C3016       C  0.64613017  0.73747129  0.60524063     1.02110
C3017       C  0.62472351  0.88382929  0.67649079     1.01030
C3018       C  0.75848018  0.89754051  0.76870656     0.99880
C3019       C  0.72928070  0.76190178  0.76875974     0.99930
C3020       C  0.56192340  0.74466804  0.70156581     1.02550
H3021       H  0.70349396  0.81675729  0.75451648     0.29920
O3022       O  0.70329776  0.81683045  0.73468844    -1.05340
H3023       H  0.62910244  0.73424090  0.66405794     0.31970
O3024       O  0.65286970  0.75688814  0.67117641    -1.07900
O3025       O  0.71303363  0.75591734  0.11724393    -0.80460
O3026       O  0.58173956  0.77909856  0.21739880    -0.82020
O3027       O  0.62257516  0.69804763  0.15670674    -0.79040
O3028       O  0.63432569  0.81006683  0.11742706    -0.77420
O3029       O  0.68233797  0.87639138  0.11482682    -0.79210
O3030       O  0.64925673  0.69012944  0.19650792    -0.80150
O3031       O  0.57408713  0.74644484  0.17672115    -0.81470
O3032       O  0.64681190  0.73740958  0.11497008    -0.81760
Eu3033     Eu  0.64070348  0.76925323  0.15566531     2.39200
O3034       O  0.65524965  0.83177092  0.17187141    -0.89270
O3035       O  0.69079407  0.75604706  0.17147458    -0.92870
C3036       C  0.67774459  0.73723056  0.10576141     1.01820
C3037       C  0.56080520  0.75041744  0.20032978     1.01630
C3038       C  0.63153572  0.67734320  0.17299572     1.01580
C3039       C  0.65131405  0.84526022  0.10564361     0.99440
H3040       H  0.61915571  0.74444455  0.21125465     0.29190
O3041       O  0.64255877  0.76749996  0.20403593    -1.01660
H3042       H  0.70463056  0.81885417  0.12031742     0.29220
O3043       O  0.70443221  0.81860599  0.14014762    -1.04200
O3044       O  0.69333100  0.87653056  0.25975060    -0.81430
O3045       O  0.82504528  0.85533931  0.15724158    -0.80960
O3046       O  0.64488988  0.74724576  0.25859696    -0.79400
O3047       O  0.66572145  0.90029352  0.15787194    -0.82740
O3048       O  0.76786588  0.89119130  0.11873661    -0.80600
O3049       O  0.74127077  0.73193342  0.21600685    -0.79240
O3050       O  0.77655643  0.82962433  0.25800958    -0.80770
O3051       O  0.79015029  0.94134254  0.21653428    -0.82690
O3052       O  0.73054115  0.76262343  0.25984220    -0.79430
O3053       O  0.76404945  0.94865687  0.17628912    -0.82100
O3054       O  0.62374337  0.79295154  0.26066829    -0.77840
O3055       O  0.77439783  0.75803497  0.17559111    -0.77870
O3056       O  0.78579678  0.84324683  0.11511090    -0.77520
O3057       O  0.63092306  0.87292441  0.19754142    -0.81010
O3058       O  0.76036628  0.89807168  0.26082222    -0.80440
O3059       O  0.83217914  0.89116611  0.19624297    -0.78760
Eu3060     Eu  0.65413398  0.83060504  0.22006992     2.39770
Eu3061     Eu  0.75337079  0.80371781  0.15532352     2.39570
Eu3062     Eu  0.69198543  0.75517207  0.21957685     2.38400
Eu3063     Eu  0.71879248  0.88210506  0.15606684     2.39880
Eu3064     Eu  0.76750887  0.86864288  0.21958107     2.39790
O3065       O  0.76662739  0.86706995  0.17149348    -0.93180
O3066       O  0.70462995  0.81806910  0.23476954    -0.92070
C3067       C  0.72886834  0.89593715  0.27097862     1.01990
C3068       C  0.84573543  0.88511612  0.17347434     1.00710
C3069       C  0.62516882  0.76279625  0.27004852     1.00100
C3070       C  0.63617321  0.89146500  0.17430076     1.02110
C3071       C  0.78673131  0.87520444  0.10682425     1.01030
C3072       C  0.76951302  0.73922582  0.19869290     0.99880
C3073       C  0.76091883  0.79410863  0.26924013     0.99930
C3074       C  0.78262928  0.96236163  0.19940317     1.02550
H3075       H  0.77783601  0.80537918  0.21071182     0.29920
O3076       O  0.75524635  0.80668917  0.20372383    -1.05340
H3077       H  0.71717519  0.90437018  0.21183503     0.31970
O3078       O  0.71604471  0.88071695  0.20446766    -1.07900
O3079       O  0.52290209  0.54512647  0.58996693    -0.80460
O3080       O  0.65670427  0.52289306  0.49110300    -0.82020
O3081       O  0.60936930  0.49655138  0.59236823    -0.79040
O3082       O  0.62110133  0.60709003  0.55018823    -0.77420
O3083       O  0.59569011  0.61427714  0.50951293    -0.79210
O3084       O  0.56372752  0.92937076  0.59362257    -0.80150
O3085       O  0.66409623  0.55824493  0.53039455    -0.81470
O3086       O  0.58969684  0.56638087  0.59290101    -0.81760
Eu3087     Eu  0.59892637  0.53454646  0.55351826     2.39200
O3088       O  0.59869326  0.53295834  0.50527490    -0.89270
O3089       O  0.53573538  0.98375518  0.56862126    -0.92870
C3090       C  0.55804594  0.56573335  0.60134488     1.01820
C3091       C  0.67731315  0.55288776  0.50722320     1.01630
C3092       C  0.59408322  0.96080123  0.60328174     1.01580
C3093       C  0.61349899  0.62793447  0.53295382     0.99440
H3094       H  0.60954766  0.97170353  0.54507389     0.29190
O3095       O  0.58684033  0.97264159  0.53793769    -1.01660
H3096       H  0.54812001  0.56911560  0.54363621     0.29220
O3097       O  0.54735492  0.54538078  0.53684501    -1.04200
O3098       O  0.54569040  0.92119247  0.45175975    -0.81430
O3099       O  0.91257695  0.94680969  0.54907579    -0.80960
O3100       O  0.57371765  0.89851688  0.55061322    -0.79400
O3101       O  0.59813767  0.55334778  0.45013055    -0.82740
O3102       O  0.99834957  0.56624255  0.49013892    -0.80600
O3103       O  0.97602609  0.91194694  0.59216603    -0.79240
O3104       O  0.95281926  0.86262433  0.49098030    -0.80770
O3105       O  0.96481575  0.97461708  0.45069552    -0.82690
O3106       O  0.98153669  0.85579341  0.53013270    -0.79430
O3107       O  0.01269985  0.54100585  0.44808411    -0.82100
O3108       O  0.60663714  0.92432324  0.51009735    -0.77840
O3109       O  0.95480015  0.95761635  0.59314251    -0.77870
O3110       O  0.96288696  0.53790175  0.52939617    -0.77520
O3111       O  0.61676097  0.50566611  0.44854060    -0.81010
O3112       O  0.47966135  0.90278924  0.44820288    -0.80440
O3113       O  0.90564315  0.91306560  0.50908854    -0.78760
Eu3114     Eu  0.58538233  0.96940414  0.48964516     2.39770
Eu3115     Eu  0.98531075  0.99564513  0.55240428     2.39570
Eu3116     Eu  0.52363310  0.92083343  0.55353273     2.38400
Eu3117     Eu  0.55105645  0.54745348  0.48855495     2.39880
Eu3118     Eu  0.97242506  0.93422907  0.48879145     2.39790
O3119       O  0.98740842  0.99705979  0.50432390    -0.93180
O3120       O  0.52257766  0.92137825  0.50535015    -0.92070
C3121       C  0.51086040  0.90249466  0.43970658     1.01990
C3122       C  0.89151949  0.91843440  0.53188915     1.00710
C3123       C  0.60224945  0.90629959  0.53343886     1.00100
C3124       C  0.61647335  0.53627609  0.43879922     1.02110
C3125       C  0.96860980  0.55711263  0.50645527     1.01030
C3126       C  0.95619960  0.92768511  0.60308560     0.99880
C3127       C  0.96196523  0.84207071  0.50731302     0.99930
C3128       C  0.98137740  0.00993735  0.43909663     1.02550
H3129       H  0.94950639  0.90987499  0.54434476     0.29920
O3130       O  0.97357266  0.93234914  0.53723207    -1.05340
H3131       H  0.53634733  0.98330034  0.45366549     0.31970
O3132       O  0.53631735  0.98351786  0.47349321    -1.07900
C3133       C  0.59927044  0.66414388  0.87031753    -0.02180
C3134       C  0.58043637  0.62503760  0.85956967     0.07500
C3135       C  0.60094764  0.61269292  0.84209435    -0.02290
C3136       C  0.64078073  0.63959616  0.83545839    -0.02300
C3137       C  0.65977585  0.67848048  0.84664123     0.07630
C3138       C  0.63929296  0.69084444  0.86409832    -0.02490
Br3139     Br  0.66627228  0.74413257  0.87936404    -0.01040
Br3140     Br  0.57020331  0.68082010  0.89371141    -0.01110
Br3141     Br  0.66919898  0.62360537  0.81065913    -0.01070
Br3142     Br  0.57434727  0.55905005  0.82751623    -0.01060
C3143       C  0.50671981  0.70671796  0.03994245    -0.02180
C3144       C  0.51079568  0.69470630  0.01356714     0.07500
C3145       C  0.54212530  0.72117770  0.99598453    -0.02290
C3146       C  0.56872126  0.76018668  0.00451578    -0.02300
C3147       C  0.56426079  0.77237285  0.03071176     0.07630
C3148       C  0.53320028  0.74581348  0.04844265    -0.02490
Br3149     Br  0.52569815  0.76318234  0.08403035    -0.01040
Br3150     Br  0.46437830  0.67009184  0.06409722    -0.01110
Br3151     Br  0.61165184  0.79660366  0.98060875    -0.01070
Br3152     Br  0.54954313  0.70394838  0.96040866    -0.01060
C3153       C  0.93744462  0.77288794  0.18018271    -0.02180
C3154       C  0.91258032  0.78632149  0.19093468     0.07500
C3155       C  0.92725646  0.82737911  0.19557431    -0.02290
C3156       C  0.96687052  0.85518834  0.18897695    -0.02300
C3157       C  0.99180554  0.84173958  0.17834079     0.07630
C3158       C  0.97710654  0.80069332  0.17369580    -0.02490
Br3159     Br  0.51057224  0.78267148  0.15715579    -0.01040
Br3160     Br  0.91720504  0.71635567  0.17493974    -0.01110
Br3161     Br  0.98708951  0.91168517  0.19438202    -0.01070
Br3162     Br  0.89406077  0.84533214  0.21278956    -0.01060
C3163       C  0.80184762  0.97540452  0.49695801    -0.02180
C3164       C  0.82534226  0.51088026  0.51197456     0.07500
C3165       C  0.80978657  0.52055013  0.53477467    -0.02290
C3166       C  0.77022495  0.99467310  0.54257429    -0.02300
C3167       C  0.74681658  0.95904989  0.52766340     0.07630
C3168       C  0.76231304  0.94949504  0.50477248    -0.02490
Br3169     Br  0.72965553  0.90060330  0.48470318    -0.01040
Br3170     Br  0.82403888  0.96207553  0.46591346    -0.01110
Br3171     Br  0.74803725  0.00796311  0.57366893    -0.01070
Br3172     Br  0.84262099  0.56918416  0.55501680    -0.01060
C3173       C  0.69391887  0.59754944  0.68416456    -0.02180
C3174       C  0.73243325  0.60628555  0.69197934     0.07500
C3175       C  0.73976234  0.57448599  0.69542076    -0.02290
C3176       C  0.70807018  0.53490484  0.69413620    -0.02300
C3177       C  0.66937756  0.52629560  0.68673131     0.07630
C3178       C  0.66202052  0.55812725  0.68363789    -0.02490
Br3179     Br  0.60788613  0.54730753  0.67853333    -0.01040
Br3180     Br  0.68606580  0.63759661  0.66827427    -0.01110
Br3181     Br  0.71739052  0.49347226  0.70549153    -0.01070
Br3182     Br  0.79404117  0.58583315  0.70016937    -0.01060
C3183       C  0.83172560  0.88519890  0.36011889    -0.02180
C3184       C  0.84546319  0.86181371  0.34737512     0.07500
C3185       C  0.88621740  0.87789994  0.34099006    -0.02290
C3186       C  0.91347608  0.91768079  0.34764445    -0.02300
C3187       C  0.89969880  0.94107459  0.36036229     0.07630
C3188       C  0.85894922  0.92490134  0.36681632    -0.02490
Br3189     Br  0.84066850  0.95645371  0.38600707    -0.01040
Br3190     Br  0.77553305  0.86278962  0.36791841    -0.01110
Br3191     Br  0.96959470  0.94031170  0.33953426    -0.01070
Br3192     Br  0.90430666  0.84607497  0.32195655    -0.01060
C3193       C  0.97229768  0.57719399  0.21487857    -0.02180
C3194       C  0.96858724  0.60416612  0.19707986     0.07500
C3195       C  0.95329807  0.59252456  0.17047117    -0.02290
C3196       C  0.94132354  0.55376068  0.16169286    -0.02300
C3197       C  0.94657674  0.52745928  0.17910900     0.07630
C3198       C  0.96204239  0.53904620  0.20563072    -0.02490
Br3199     Br  0.96957562  0.50285666  0.22903302    -0.01040
Br3200     Br  0.99043426  0.59152616  0.25218485    -0.01110
Br3201     Br  0.91559598  0.53621311  0.12635577    -0.01070
Br3202     Br  0.94651974  0.62875512  0.14665352    -0.01060
C3203       C  0.59794541  0.63865856  0.32620988    -0.02180
C3204       C  0.60241318  0.66986231  0.34370409     0.07500
C3205       C  0.61964221  0.67492381  0.36978107    -0.02290
C3206       C  0.63309267  0.64922058  0.37821587    -0.02300
C3207       C  0.62724388  0.61719944  0.36112823     0.07630
C3208       C  0.60969345  0.61179232  0.33518968    -0.02490
Br3209     Br  0.60152667  0.56752207  0.31222424    -0.01040
Br3210     Br  0.57687181  0.63298747  0.28962791    -0.01110
Br3211     Br  0.66149143  0.65937859  0.41261608    -0.01070
Br3212     Br  0.62698621  0.71837974  0.39328036    -0.01060
C3213       C  0.81710242  0.53251505  0.03009863    -0.02180
C3214       C  0.77912317  0.51837157  0.01849979     0.07500
C3215       C  0.75368466  0.97728384  0.01323787    -0.02290
C3216       C  0.76631318  0.95020060  0.01974182    -0.02300
C3217       C  0.80435015  0.96435044  0.03125288     0.07630
C3218       C  0.82964290  0.50535722  0.03672851    -0.02490
Br3219     Br  0.88059447  0.52407746  0.05435100    -0.01040
Br3220     Br  0.85197284  0.58908509  0.03627370    -0.01110
Br3221     Br  0.73166729  0.89369024  0.01299225    -0.01070
Br3222     Br  0.70263318  0.95832391  0.99548501    -0.01060
C3223       C  0.74342364  0.71341315  0.50324569    -0.02180
C3224       C  0.76914829  0.69836736  0.50882655     0.07500
C3225       C  0.80688374  0.72275175  0.52067167    -0.02290
C3226       C  0.81869536  0.76221640  0.52751866    -0.02300
C3227       C  0.79280482  0.77716420  0.52217131     0.07630
C3228       C  0.75525452  0.75294490  0.51007917    -0.02490
Br3229     Br  0.72017519  0.77401331  0.50332250    -0.01040
Br3230     Br  0.69275090  0.68044745  0.48539395    -0.01110
Br3231     Br  0.86928318  0.79491889  0.54578599    -0.01070
Br3232     Br  0.84213893  0.70185664  0.52760223    -0.01060
C3233       C  0.92827357  0.77867700  0.68479440    -0.02180
C3234       C  0.96621579  0.79251312  0.69639644     0.07500
C3235       C  0.99187556  0.83353867  0.70168345    -0.02290
C3236       C  0.97977387  0.86095798  0.69488636    -0.02300
C3237       C  0.94201630  0.84713674  0.68305499     0.07630
C3238       C  0.91631495  0.80612521  0.67775689    -0.02490
Br3239     Br  0.86594931  0.78782886  0.65919447    -0.01040
Br3240     Br  0.89276380  0.72219210  0.67874144    -0.01110
Br3241     Br  0.51492676  0.91749518  0.70119251    -0.01070
Br3242     Br  0.54269133  0.85200181  0.71942846    -0.01060
C3243       C  0.59729483  0.88794402  0.82629425    -0.02180
C3244       C  0.60428038  0.86278702  0.84368276     0.07500
C3245       C  0.62259833  0.87616538  0.86933444    -0.02290
C3246       C  0.63506041  0.91533689  0.87739151    -0.02300
C3247       C  0.62802143  0.94051259  0.85998382     0.07630
C3248       C  0.60952055  0.92706729  0.83439699    -0.02490
Br3249     Br  0.60029046  0.96189495  0.81082417    -0.01040
Br3250     Br  0.56974487  0.86848770  0.79176403    -0.01110
Br3251     Br  0.66279218  0.93460236  0.91202464    -0.01070
Br3252     Br  0.63113614  0.84110347  0.89316712    -0.01060
C3253       C  0.67995596  0.56846347  0.20071029    -0.02180
C3254       C  0.68565050  0.58616031  0.17471160     0.07500
C3255       C  0.71717096  0.59110786  0.15745098    -0.02290
C3256       C  0.74293687  0.57785984  0.16620437    -0.02300
C3257       C  0.73724913  0.56019872  0.19222383     0.07630
C3258       C  0.70535583  0.55479740  0.20931828    -0.02490
Br3259     Br  0.69533206  0.52747861  0.24426282    -0.01040
Br3260     Br  0.63684529  0.56202253  0.22425746    -0.01110
Br3261     Br  0.78624921  0.58449555  0.14287550    -0.01070
Br3262     Br  0.72587436  0.61703966  0.12213275    -0.01060
C3263       C  0.64009981  0.92393430  0.33632662    -0.02180
C3264       C  0.66125681  0.90829730  0.35025670     0.07500
C3265       C  0.64355066  0.88077987  0.37179962    -0.02290
C3266       C  0.60415848  0.86844109  0.37932206    -0.02300
C3267       C  0.58299969  0.88392078  0.36523493     0.07630
C3268       C  0.60072165  0.91146150  0.34373599    -0.02490
Br3269     Br  0.57112649  0.93225293  0.32480761    -0.01040
Br3270     Br  0.66511709  0.96245059  0.30704173    -0.01110
Br3271     Br  0.57896550  0.83018151  0.40874150    -0.01070
Br3272     Br  0.67314438  0.85996947  0.39059991    -0.01060
C3273       C  0.80065624  0.71035817  0.02587045    -0.02180
C3274       C  0.82557282  0.74824080  0.01425938     0.07500
C3275       C  0.81115676  0.77457406  0.00885696    -0.02290
C3276       C  0.77163406  0.76304417  0.01543818    -0.02300
C3277       C  0.74663856  0.72502942  0.02689472     0.07630
C3278       C  0.76115580  0.69878329  0.03233644    -0.02490
Br3279     Br  0.72767866  0.64783237  0.04998625    -0.01040
Br3280     Br  0.82067521  0.67427955  0.03249677    -0.01110
Br3281     Br  0.75158865  0.79908095  0.00889663    -0.01070
Br3282     Br  0.84477464  0.82536764  0.99100370    -0.01060
C3283       C  0.54800245  0.77028601  0.50806434    -0.02180
C3284       C  0.50702579  0.74462669  0.51338506     0.07500
C3285       C  0.99306731  0.70669550  0.52518265    -0.02290
C3286       C  0.52037501  0.69456631  0.53222999    -0.02300
C3287       C  0.56137376  0.72031942  0.52701335     0.07630
C3288       C  0.57528086  0.75819379  0.51513184    -0.02490
Br3289     Br  0.63174170  0.79362791  0.50907057    -0.01040
Br3290     Br  0.56660524  0.82106318  0.48980540    -0.01110
Br3291     Br  0.00190936  0.64378622  0.55042558    -0.01070
Br3292     Br  0.93660421  0.67158506  0.53144356    -0.01060
C3293       C  0.88418551  0.92592168  0.82567887    -0.02180
C3294       C  0.85093532  0.91775630  0.84221431     0.07500
C3295       C  0.84353773  0.89668868  0.86701415    -0.02290
C3296       C  0.86920079  0.88312115  0.87521940    -0.02300
C3297       C  0.90278013  0.89175689  0.85888705     0.07630
C3298       C  0.91012942  0.91268438  0.83403782    -0.02490
Br3299     Br  0.95588902  0.92361245  0.81185042    -0.01580
Br3300     Br  0.89464210  0.95586384  0.79184874    -0.01110
Br3301     Br  0.85771444  0.85188782  0.90859070    -0.01070
Br3302     Br  0.79782602  0.88563577  0.88935390    -0.01060
C3303       C  0.96344174  0.54591999  0.68714253    -0.02180
C3304       C  0.98846740  0.58472448  0.67707739     0.07500
C3305       C  0.97494470  0.61218635  0.67399749    -0.02290
C3306       C  0.93605094  0.60093196  0.68181635    -0.02300
C3307       C  0.91094989  0.56204277  0.69182336     0.07630
C3308       C  0.92461737  0.53460351  0.69481396    -0.02490
Br3309     Br  0.89160607  0.98261154  0.71145316    -0.01040
Br3310     Br  0.98228874  0.50819349  0.69002846    -0.01110
Br3311     Br  0.91736667  0.63868023  0.67941016    -0.01070
Br3312     Br  0.50867549  0.66401771  0.65747264    -0.01060
loop_ 
_geom_bond_atom_site_label_1 
_geom_bond_atom_site_label_2 
_geom_bond_distance 
_geom_bond_site_symmetry_2 
_ccdc_geom_bond_type 
C1          C498   1.493       .  S
C1          C830   1.399       .  A
C1          C834   1.426       .  A
C2            C3   1.388       .  A
C2          C829   1.399   1_545  A
C2          H835   1.084       .  S
C3          C823   1.444       .  S
C3            C4   1.381       .  A
C4            C5   1.386       .  A
C4            H8   1.086       .  S
C5          C336   1.477       .  S
C5            C6   1.422       .  A
C6          C829   1.426   1_545  A
C6            H9   1.082   1_545  S
H7          C830   1.084       .  S
C10         C529   1.492       .  S
C10          C11   1.400       .  A
C10          C15   1.427       .  A
C11          C12   1.386       .  A
C11          H16   1.084       .  S
C12        C2476   1.441   1_455  S
C12          C13   1.378       .  A
C13          C14   1.384       .  A
C13          H17   1.085   1_455  S
C14         C606   1.479       .  S
C14          C15   1.424       .  A
C15          H18   1.082       .  S
C19        C1166   1.498       .  S
C19          C20   1.426       .  A
C19          C24   1.407       .  A
C20          C21   1.427       .  A
C20          H25   1.082       .  S
C21         C534   1.483       .  S
C21          C22   1.388       .  A
C22          C23   1.379       .  A
C22          H26   1.085       .  S
C23         C810   1.454       .  S
C23          C24   1.389       .  A
C24          H27   1.084       .  S
C28         C374   1.502       .  S
C28          C29   1.427       .  A
C28          C33   1.408       .  A
C29          C30   1.429       .  A
C29          H34   1.083       .  S
C30         C390   1.482       .  S
C30          C31   1.384       .  A
C31          C32   1.381       .  A
C31          H35   1.086       .  S
C32         C813   1.454       .  S
C32          C33   1.391       .  A
C33          H36   1.084       .  S
C37         C643   1.500       .  S
C37          C38   1.407       .  A
C37          C42   1.428       .  A
C38          C39   1.390       .  A
C38        H1699   1.084       .  S
C39        C2456   1.453       .  S
C39          C40   1.380       .  A
C40          C41   1.388       .  A
C40          H44   1.085       .  S
C41         C444   1.483       .  S
C41          C42   1.426       .  A
C42          H45   1.083       .  S
H43        C1694   1.084       .  S
C46         C609   1.505       .  S
C46          C47   1.408       .  A
C46          C51   1.428       .  A
C47          C48   1.392       .  A
C47          H52   1.084       .  S
C48         C803   1.453       .  S
C48          C49   1.381       .  A
C49          C50   1.386       .  A
C49          H53   1.085       .  S
C50         C532   1.487       .  S
C50          C51   1.431       .  A
C51          H54   1.083       .  S
C55         C393   1.504   1_556  S
C55          C56   1.410   1_556  A
C55          C60   1.426       .  A
C56          C57   1.392       .  A
C56          H61   1.083       .  S
C57         C790   1.456       .  S
C57          C58   1.381   1_554  A
C58          C59   1.386       .  A
C58          H62   1.085       .  S
C59         C367   1.484       .  S
C59          C60   1.429       .  A
C60          H63   1.083       .  S
C64         C427   1.504       .  S
C64          C65   1.428       .  A
C64          C69   1.409       .  A
C65          C66   1.427       .  A
C65          H70   1.083       .  S
C66         C552   1.484       .  S
C66          C67   1.388       .  A
C67          C68   1.381       .  A
C67          H71   1.085       .  S
C68         C793   1.457       .  S
C68          C69   1.392       .  A
C69          H72   1.084       .  S
C73         C446   1.499       .  S
C73          C74   1.407       .  A
C73          C78   1.427       .  A
C74        C1731   1.388       .  A
C74          H79   1.084       .  S
C75         C783   1.453       .  S
C75          C76   1.380       .  A
C75        C1730   1.388       .  A
C76        C1733   1.390       .  A
C76          H80   1.085       .  S
C77        C2293   1.485       .  S
C77          C78   1.427       .  A
C77        C1732   1.390       .  A
C78          H81   1.083       .  S
C82        C1310   1.504       .  S
C82          C83   1.408       .  A
C82          C87   1.428       .  A
C83          C84   1.392       .  A
C83          H88   1.084       .  S
C84         C780   1.455       .  S
C84          C85   1.383       .  A
C85          C86   1.387       .  A
C85          H89   1.085       .  S
C86         C583   1.485       .  S
C86          C87   1.428       .  A
C87          H90   1.083       .  S
C91         C554   1.497       .  S
C91          C92   1.406       .  A
C91          C96   1.427       .  A
C92          C93   1.388       .  A
C92          H97   1.084       .  S
C93         C770   1.455       .  S
C93          C94   1.379       .  A
C94          C95   1.388       .  A
C94          H98   1.085       .  S
C95         C421   1.483       .  S
C95          C96   1.428       .  A
C96          H99   1.083       .  S
C100        C590   1.501       .  S
C100        C929   1.425       .  A
C100        C933   1.409       .  A
C101        C102   1.427       .  A
C101        C928   1.425       .  A
C101        H934   1.083       .  S
C102        C475   1.478       .  S
C102        C103   1.383       .  A
C103        C104   1.381       .  A
C103        H107   1.086       .  S
C104        C773   1.457       .  S
C104        C105   1.392       .  A
C105        C928   1.409       .  A
C105        H936   1.083       .  S
H106        C929   1.083       .  S
H108        C933   1.083       .  S
C109        C368   1.499       .  S
C109        C110   1.406       .  A
C109        C114   1.428       .  A
C110        C111   1.389       .  A
C110        H115   1.084       .  S
C111        C760   1.456       .  S
C111        C112   1.380       .  A
C112        C113   1.389       .  A
C112        H116   1.085       .  S
C113        C530   1.485       .  S
C113        C114   1.428       .  A
C114        H117   1.083       .  S
C118        C337   1.499       .  S
C118        C119   1.408       .  A
C118        C123   1.425       .  A
C119        C948   1.392   1_545  A
C119        H124   1.084       .  S
C120        C763   1.456       .  S
C120        C121   1.380       .  A
C120        C947   1.392       .  A
C121        C950   1.384       .  A
C121        H125   1.086       .  S
C122       C1220   1.478       .  S
C122        C123   1.426       .  A
C122        C949   1.384   1_545  A
C123        H126   1.083       .  S
C127        C500   1.501       .  S
C127        C128   1.408       .  A
C127        C132   1.426       .  A
C128        C129   1.391       .  A
C128        H133   1.084       .  S
C129        C753   1.452       .  S
C129        C130   1.380       .  A
C130        C131   1.386       .  A
C130        H134   1.085       .  S
C131        C642   1.483       .  S
C131        C132   1.428       .  A
C132        H135   1.083       .  S
C136        C536   1.499       .  S
C136        C137   1.408       .  A
C136        C141   1.426       .  A
C137       C1794   1.390   1_455  A
C137        H142   1.084       .  S
C138        C750   1.455       .  S
C138        C139   1.379       .  A
C138       C1793   1.390       .  A
C139        C140   1.389       .  A
C139        H143   1.085       .  S
C140        C371   1.482       .  S
C140       C1797   1.426       .  A
C141       C1796   1.426   1_455  A
C141        H144   1.083       .  S
C145        C740   1.455       .  S
C145        C146   1.380       .  A
C145        C150   1.389       .  A
C146        C147   1.390       .  A
C146        H151   1.085       .  S
C147        C447   1.487       .  S
C147        C148   1.427       .  A
C148        C149   1.428       .  A
C148        H152   1.082       .  S
C149        C607   1.500       .  S
C149        C150   1.408       .  A
C150        H153   1.084       .  S
C154        C638   1.504       .  S
C154        C155   1.407       .  A
C154        C159   1.428       .  A
C155        C156   1.392       .  A
C155        H160   1.084       .  S
C156        C743   1.453       .  S
C156        C157   1.383       .  A
C157        C158   1.386       .  A
C157        H161   1.085       .  S
C158        C499   1.486       .  S
C158        C159   1.429       .  A
C159        H162   1.083       .  S
C163        C423   1.502       .  S
C163        C164   1.408       .  A
C163        C168   1.425   1_554  A
C164        C165   1.393       .  A
C164        H169   1.084       .  S
C165        C730   1.453       .  S
C165        C166   1.382   1_554  A
C166        C167   1.385       .  A
C166        H170   1.085       .  S
C167        C369   1.481       .  S
C167        C168   1.427       .  A
C168        H171   1.083       .  S
C172        C425   1.500       .  S
C172        C173   1.408       .  A
C172        C177   1.428       .  A
C173        C174   1.390       .  A
C173        H178   1.084       .  S
C174        C733   1.454       .  S
C174        C175   1.379       .  A
C175        C176   1.388       .  A
C175        H179   1.085       .  S
C176        C587   1.485       .  S
C176        C177   1.427       .  A
C177        H180   1.082       .  S
C181        C478   1.501       .  S
C181        C182   1.407       .  A
C181        C186   1.428       .  A
C182        C183   1.391       .  A
C182        H187   1.084       .  S
C183        C723   1.455       .  S
C183        C184   1.380       .  A
C184        C185   1.385       .  A
C184        H188   1.086       .  S
C185        C640   1.480       .  S
C185        C186   1.426       .  A
C186        H189   1.082       .  S
C190       C2136   1.502       .  S
C190        C191   1.409       .  A
C190        C195   1.425       .  A
C191        C192   1.393       .  A
C191        H196   1.084       .  S
C192        C720   1.459       .  S
C192        C193   1.379       .  A
C193        C194   1.385       .  A
C193        H197   1.085       .  S
C194        C585   1.481       .  S
C194        C195   1.429       .  A
C195        H198   1.083       .  S
C199        C481   1.481       .  S
C199        C200   1.385       .  A
C199       C1860   1.429       .  A
C200        C201   1.380       .  A
C200        H205   1.085       .  S
C201        C710   1.460       .  S
C201       C1858   1.394       .  A
C202        C203   1.408       .  A
C202       C1857   1.394   1_455  A
C202        H206   1.084       .  S
C203        C553   1.502       .  S
C203        C204   1.425       .  A
C204       C1855   1.429   1_455  A
C204        H207   1.083       .  S
C208        C584   1.497       .  S
C208        C209   1.406       .  A
C208        C213   1.425       .  A
C209        C210   1.390       .  A
C209        H214   1.084       .  S
C210       C1541   1.456       .  S
C210        C211   1.379       .  A
C211        C212   1.386       .  A
C211        H215   1.086       .  S
C212        C428   1.477       .  S
C212        C213   1.425       .  A
C213        H216   1.082       .  S
C217        C445   1.501       .  S
C217        C218   1.409       .  A
C217        C222   1.426       .  A
C218        C219   1.391       .  A
C218        H223   1.084       .  S
C219        C700   1.453       .  S
C219        C220   1.380       .  A
C220        C221   1.386       .  A
C220        H224   1.085       .  S
C221        C589   1.482       .  S
C221        C222   1.428       .  A
C222        H225   1.083       .  S
C226        C476   1.502       .  S
C226        C227   1.408       .  A
C226        C231   1.428       .  A
C227       C1056   1.391   1_545  A
C227        H232   1.084       .  S
C228        C703   1.454       .  S
C228        C229   1.380       .  A
C228       C1055   1.391       .  A
C229       C1058   1.388       .  A
C229        H233   1.085       .  S
C230       C1472   1.484       .  S
C230        C231   1.428       .  A
C230       C1057   1.388   1_545  A
C231        H234   1.082       .  S
C235        C531   1.508       .  S
C235        C236   1.407       .  A
C235        C240   1.427       .  A
C236        C237   1.402       .  A
C236        H241   1.080       .  S
C237        C690   1.487       .  S
C237        C238   1.394       .  A
C238        C239   1.390       .  A
C238        H242   1.083       .  S
C239        C339   1.494       .  S
C239        C240   1.425       .  A
C240        H243   1.082       .  S
C244        C533   1.509       .  S
C244        C245   1.409       .  A
C244        C249   1.427       .  A
C245        C246   1.403       .  A
C245        H250   1.081       .  S
C246       C1521   1.484       .  S
C246        C247   1.396       .  A
C247        C248   1.387       .  A
C247       H1079   1.084       .  S
C248        C608   1.493       .  S
C248        C249   1.426       .  A
C249        H252   1.083       .  S
H251       C1075   1.084   1_545  S
C253        C641   1.499       .  S
C253        C254   1.408       .  A
C253        C258   1.426       .  A
C254        C255   1.388       .  A
C254        H259   1.084       .  S
C255        C680   1.453       .  S
C255        C256   1.379       .  A
C256        C257   1.387       .  A
C256        H260   1.086       .  S
C257        C479   1.480       .  S
C257        C258   1.426       .  A
C258        H261   1.082       .  S
C262        C639   1.501       .  S
C262        C263   1.408       .  A
C262        C267   1.426       .  A
C263        C264   1.390       .  A
C263        H268   1.084       .  S
C264        C683   1.452       .  S
C264        C265   1.380       .  A
C265        C266   1.385       .  A
C265        H269   1.085       .  S
C266        C501   1.481       .  S
C266        C267   1.429       .  A
C267        H270   1.083       .  S
C271        C588   1.504       .  S
C271        C272   1.409       .  A
C271        C276   1.427       .  A
C272        C273   1.393       .  A
C272        H277   1.084       .  S
C273        C670   1.455       .  S
C273        C274   1.382       .  A
C274        C275   1.386       .  A
C274        H278   1.085       .  S
C275        C477   1.485       .  S
C275        C276   1.429       .  A
C276        H279   1.083       .  S
C280        C586   1.502       .  S
C280        C281   1.428       .  A
C280        C285   1.408       .  A
C281        C282   1.427       .  A
C281        H286   1.083       .  S
C282        C424   1.486       .  S
C282        C283   1.389       .  A
C283        C284   1.380       .  A
C283        H287   1.085       .  S
C284       C2329   1.457   1_455  S
C284        C285   1.392       .  A
C285        H288   1.084       .  S
C289        C422   1.502   1_556  S
C289        C290   1.408   1_556  A
C289        C294   1.426       .  A
C290        C291   1.392       .  A
C290       H1951   1.084       .  S
C291       C2316   1.460       .  S
C291        C292   1.382   1_554  A
C292        C293   1.386       .  A
C292        H296   1.085       .  S
C293        C373   1.484       .  S
C293        C294   1.429       .  A
C294        H297   1.083       .  S
H295       C1946   1.084       .  S
C298        C391   1.498       .  S
C298        C299   1.426       .  A
C298        C303   1.407       .  A
C299        C300   1.425       .  A
C299        H304   1.083       .  S
C300        C555   1.480       .  S
C300        C301   1.387       .  A
C301        C302   1.379       .  A
C301        H305   1.086       .  S
C302        C663   1.457       .  S
C302        C303   1.391       .  A
C303        H306   1.084       .  S
C307        C370   1.500       .  S
C307        C308   1.407       .  A
C307        C312   1.428       .  A
C308        C309   1.388       .  A
C308        H313   1.084       .  S
C309        C653   1.450       .  S
C309        C310   1.380       .  A
C310        C311   1.388       .  A
C310        H314   1.086       .  S
C311        C535   1.484       .  S
C311        C312   1.427       .  A
C312        H315   1.082       .  S
C316        C372   1.505       .  S
C316        C321   1.427       .  A
C316       C1973   1.409       .  A
C317        C318   1.391       .  A
C317       C1972   1.409   1_455  A
C317        H322   1.083       .  S
C318        C650   1.453       .  S
C318        C319   1.382       .  A
C319        C320   1.386       .  A
C319        H323   1.085       .  S
C320        C426   1.486       .  S
C320       C1977   1.430   1_455  A
C321       C1976   1.430       .  A
C321        H324   1.083       .  S
O325        C336   1.305       .  A
O325       Eu361   2.517       .  S
O326        C337   1.294       .  A
O326       Eu360   2.489       .  S
O327        C338   1.292       .  A
O327       Eu333   2.480       .  S
O328        C339   1.307       .  A
O328       Eu333   2.528       .  S
O329        C339   1.285       .  A
O329       Eu363   2.425       .  S
O330        C338   1.298       .  A
O330       Eu362   2.476       .  S
O331        C337   1.298       .  A
O331       Eu333   2.478       .  S
O332        C336   1.282       .  A
O332       Eu333   2.407       .  S
Eu333       O343   2.361       .  S
Eu333       O335   2.367       .  S
Eu333       O334   2.326       .  S
Eu333       O341   2.360       .  S
O334       Eu363   2.364       .  S
O334       Eu360   2.342       .  S
O335       Eu361   2.325       .  S
O335       Eu362   2.343       .  S
C338        C847   1.498   1_545  S
H340        O341   0.963       .  S
O341       Eu362   2.328       .  S
O341       Eu360   2.380       .  S
H342        O343   0.966       .  S
O343       Eu361   2.366       .  S
O343       Eu363   2.361       .  S
O344        C367   1.309       .  A
O344       Eu360   2.539       .  S
O345       C2024   1.291       .  A
O345       Eu361   2.474       .  S
O346        C369   1.310       .  A
O346       Eu362   2.542       .  S
O347        C370   1.292       .  A
O347       Eu363   2.476       .  S
O348        C371   1.305       .  A
O348       Eu363   2.515       .  S
O349        C372   1.296       .  A
O349       Eu362   2.500       .  S
O350        C373   1.311       .  A
O350       Eu364   2.549       .  S
O351        C374   1.294       .  A
O351       Eu364   2.489       .  S
O352        C373   1.278       .  A
O352       Eu362   2.387       .  S
O353        C374   1.299       .  A
O353       Eu363   2.487       .  S
O354        C369   1.278       .  A
O354       Eu360   2.385       .  S
O355        C372   1.299       .  A
O355       Eu361   2.483       .  S
O356        C371   1.282       .  A
O356       Eu361   2.411       .  S
O357        C370   1.298       .  A
O357       Eu360   2.476       .  S
O358        C367   1.279       .  A
O358       Eu364   2.391       .  S
O359       C2024   1.299       .  A
O359       Eu364   2.480       .  S
Eu360       O378   2.320       .  S
Eu360       O366   2.348       .  S
Eu361       O365   2.366       .  S
Eu361       O376   2.361       .  S
Eu362       O376   2.381       .  S
Eu362       O366   2.349       .  S
Eu363       O365   2.330       .  S
Eu363       O378   2.358       .  S
Eu364       O365   2.345       .  S
Eu364       O376   2.320       .  S
Eu364       O378   2.380       .  S
Eu364       O366   2.346       .  S
C368       O2001   1.291   1_455  A
C368       O2015   1.299   1_455  A
H375        O376   0.963       .  S
H377        O378   0.963       .  S
O379        C390   1.312       .  A
O379       Eu415   2.554       .  S
O380        C391   1.291       .  A
O380       Eu414   2.475       .  S
O381        C392   1.311       .  A
O381       Eu387   2.545       .  S
O382        C393   1.296   1_556  A
O382      Eu2043   2.502       .  S
O383        C393   1.297       .  A
O383       Eu417   2.477       .  S
O384       C1220   1.277       .  A
O384       Eu416   2.376       .  S
O385        C391   1.298       .  A
O385       Eu387   2.479   1_554  S
O386        C390   1.277       .  A
O386      Eu2043   2.378       .  S
Eu387      O2038   2.502   1_455  S
Eu387      O2042   2.378       .  S
Eu387       O389   2.348       .  S
Eu387       O388   2.340   1_556  S
Eu387       O395   2.327   1_556  S
Eu387      O2053   2.380   1_456  S
O388       Eu414   2.367       .  S
O388      Eu2073   2.323   1_455  S
O389      Eu2071   2.343   1_455  S
O389      Eu1244   2.348       .  S
C392        C950   1.478       .  S
C392       O1212   1.277       .  A
H394        O395   0.963   1_556  S
O395       Eu414   2.360       .  S
O395      Eu1244   2.383   1_554  S
H396        O397   0.963   1_556  S
O397       Eu415   2.322   1_554  S
O397       Eu417   2.358       .  S
O397      Eu2043   2.380   1_554  S
O398        C421   1.307       .  A
O398      Eu1242   2.523   1_545  S
O399        C422   1.294   1_556  A
O399      Eu1243   2.490   1_545  S
O400        C423   1.295   1_556  A
O400       Eu416   2.494       .  S
O401        C424   1.307       .  A
O401      Eu2073   2.526   1_455  S
O402        C425   1.292       .  A
O402       Eu417   2.483       .  S
O403        C426   1.311       .  A
O403       Eu416   2.549       .  S
O404        C427   1.293       .  A
O404       Eu418   2.489       .  S
O405       C1256   1.308       .  A
O405      Eu2074   2.533   1_565  S
O406        C427   1.297       .  A
O406       Eu416   2.476   1_554  S
O407        C428   1.279       .  A
O407       Eu417   2.393       .  S
O408        C423   1.297       .  A
O408      Eu1242   2.477   1_545  S
O409        C426   1.279   1_655  A
O409      Eu2899   2.389   1_545  S
O410        C425   1.298       .  A
O410       Eu415   2.478   1_554  S
O411        C424   1.282       .  A
O411       Eu414   2.411       .  S
O412        C421   1.281       .  A
O412       Eu418   2.406       .  S
O413        C422   1.300       .  A
O413      Eu2074   2.488       .  S
Eu414      O1226   2.523       .  S
Eu414      O1236   2.477       .  S
Eu414       O432   2.353       .  S
Eu414      O1248   2.330       .  S
Eu415      O1227   2.490       .  S
Eu415      O2893   2.389       .  S
Eu415       O419   2.346   1_556  S
Eu415      O2045   2.343       .  S
Eu415      O2914   2.381   1_556  S
Eu416       O430   2.318   1_556  S
Eu416       O420   2.345   1_556  S
Eu416      O1217   2.348   1_545  S
Eu416      O1223   2.383   1_546  S
Eu417      O2057   2.526       .  S
Eu417       O419   2.368       .  S
Eu417      O2044   2.323       .  S
Eu417      O2088   2.359       .  S
Eu418      O2061   2.533   1_445  S
Eu418      O2069   2.488   1_455  S
Eu418       O430   2.358       .  S
Eu418       O420   2.370       .  S
Eu418      O2903   2.328   1_445  S
Eu418      O1260   2.359   1_545  S
O419      Eu2902   2.328       .  S
O420      Eu1242   2.330   1_545  S
C428       O1233   1.308       .  A
H429        O430   0.962   1_556  S
O430      Eu2899   2.381   1_444  S
H431        O432   0.965       .  S
O432      Eu2073   2.359   1_455  S
O432      Eu1246   2.359       .  S
O433        C444   1.307       .  A
O433       Eu469   2.525       .  S
O434        C445   1.295       .  A
O434       Eu468   2.495       .  S
O435        C446   1.291       .  A
O435       Eu441   2.477       .  S
O436        C447   1.305       .  A
O436       Eu441   2.516       .  S
O437        C447   1.283       .  A
O437       Eu471   2.418       .  S
O438        C446   1.298       .  A
O438       Eu470   2.478       .  S
O439        C445   1.298       .  A
O439       Eu441   2.478       .  S
O440        C444   1.282       .  A
O440       Eu441   2.408       .  S
Eu441       O451   2.358       .  S
Eu441       O443   2.367       .  S
Eu441       O442   2.327       .  S
Eu441       O449   2.356       .  S
O442       Eu471   2.368       .  S
O442       Eu468   2.345       .  S
O443       Eu469   2.328       .  S
O443       Eu470   2.343       .  S
H448        O449   0.963       .  S
O449       Eu470   2.321       .  S
O449       Eu468   2.382       .  S
H450        O451   0.966       .  S
O451       Eu469   2.363       .  S
O451       Eu471   2.359       .  S
O452        C475   1.312       .  A
O452       Eu468   2.552       .  S
O453        C476   1.293       .  A
O453       Eu469   2.485       .  S
O454        C477   1.310       .  A
O454       Eu470   2.545       .  S
O455        C478   1.292       .  A
O455       Eu471   2.477       .  S
O456        C479   1.307       .  A
O456       Eu471   2.526       .  S
O457        C480   1.295       .  A
O457       Eu470   2.495       .  S
O458        C481   1.311       .  A
O458       Eu472   2.546       .  S
O459        C482   1.294       .  A
O459       Eu472   2.493       .  S
O460        C481   1.278       .  A
O460       Eu470   2.382       .  S
O461        C482   1.299       .  A
O461       Eu471   2.487       .  S
O462        C477   1.279       .  A
O462       Eu468   2.391       .  S
O463        C480   1.299       .  A
O463       Eu469   2.486       .  S
O464        C479   1.281       .  A
O464       Eu469   2.402       .  S
O465        C478   1.299       .  A
O465       Eu468   2.482       .  S
O466        C475   1.276       .  A
O466       Eu472   2.371       .  S
O467        C476   1.297       .  A
O467       Eu472   2.474       .  S
Eu468       O486   2.326       .  S
Eu468       O474   2.344       .  S
Eu469       O473   2.370       .  S
Eu469       O484   2.354       .  S
Eu470       O484   2.382       .  S
Eu470       O474   2.347       .  S
Eu471       O473   2.331       .  S
Eu471       O486   2.362       .  S
Eu472       O473   2.343       .  S
Eu472       O484   2.315       .  S
Eu472       O486   2.379       .  S
Eu472       O474   2.347       .  S
C480       C1846   1.502       .  S
C482        C910   1.504   1_545  S
H483        O484   0.962       .  S
H485        O486   0.963       .  S
O487        C498   1.290       .  A
O487       Eu523   2.466       .  S
O488        C499   1.311       .  A
O488       Eu522   2.550       .  S
O489        C500   1.294       .  A
O489       Eu495   2.489       .  S
O490        C501   1.310       .  A
O490       Eu495   2.542       .  S
O491        C501   1.277       .  A
O491       Eu525   2.381       .  S
O492        C500   1.299       .  A
O492       Eu524   2.482       .  S
O493        C499   1.279       .  A
O493       Eu495   2.390       .  S
O494        C498   1.296       .  A
O494       Eu495   2.469       .  S
Eu495       O505   2.334       .  S
Eu495       O497   2.341       .  S
Eu495       O496   2.342       .  S
Eu495       O503   2.377       .  S
O496       Eu525   2.352       .  S
O496       Eu522   2.350       .  S
O497       Eu523   2.367       .  S
O497       Eu524   2.322       .  S
H502        O503   0.963       .  S
O503       Eu524   2.357       .  S
O503       Eu522   2.316       .  S
H504        O505   0.963       .  S
O505       Eu523   2.363       .  S
O505       Eu525   2.377       .  S
O506        C529   1.292       .  A
O506       Eu522   2.472       .  S
O507        C530   1.307       .  A
O507       Eu523   2.528       .  S
O508        C531   1.293       .  A
O508       Eu524   2.484       .  S
O509        C532   1.312       .  A
O509       Eu525   2.551       .  S
O510        C533   1.295       .  A
O510       Eu525   2.492       .  S
O511        C534   1.308       .  A
O511       Eu524   2.530       .  S
O512        C535   1.308       .  A
O512       Eu526   2.533       .  S
O513        C536   1.293       .  A
O513       Eu526   2.483       .  S
O514        C535   1.281       .  A
O514       Eu524   2.402       .  S
O515        C536   1.298       .  A
O515       Eu525   2.476       .  S
O516        C531   1.302       .  A
O516       Eu522   2.501       .  S
O517        C534   1.282       .  A
O517       Eu523   2.403       .  S
O518        C533   1.302       .  A
O518       Eu523   2.505       .  S
O519        C532   1.280       .  A
O519       Eu522   2.392       .  S
O520        C529   1.298       .  A
O520       Eu526   2.478       .  S
O521        C530   1.281       .  A
O521       Eu526   2.407       .  S
Eu522       O540   2.383       .  S
Eu522       O528   2.353       .  S
Eu523       O527   2.319       .  S
Eu523       O538   2.359       .  S
Eu524       O538   2.360       .  S
Eu524       O528   2.373       .  S
Eu525       O527   2.346       .  S
Eu525       O540   2.305       .  S
Eu526       O527   2.369       .  S
Eu526       O538   2.349       .  S
Eu526       O540   2.352       .  S
Eu526       O528   2.339       .  S
H537        O538   0.965       .  S
H539        O540   0.961       .  S
O541        C552   1.308       .  A
O541       Eu577   2.530       .  S
O542        C553   1.295       .  A
O542       Eu576   2.495       .  S
O543        C554   1.291       .  A
O543       Eu549   2.475       .  S
O544        C555   1.308       .  A
O544       Eu549   2.529       .  S
O545        C555   1.280       .  A
O545       Eu579   2.400       .  S
O546        C554   1.299       .  A
O546       Eu578   2.479       .  S
O547        C553   1.300       .  A
O547       Eu549   2.488       .  S
O548        C552   1.282       .  A
O548       Eu549   2.408       .  S
Eu549       O559   2.358       .  S
Eu549       O551   2.367       .  S
Eu549       O550   2.328       .  S
Eu549       O557   2.358       .  S
O550       Eu579   2.369       .  S
O550       Eu576   2.347       .  S
O551       Eu577   2.322       .  S
O551       Eu578   2.343       .  S
H556        O557   0.962       .  S
O557       Eu578   2.318       .  S
O557       Eu576   2.381       .  S
H558        O559   0.966       .  S
O559       Eu577   2.358       .  S
O559       Eu579   2.360       .  S
O560        C583   1.311       .  A
O560       Eu576   2.547       .  S
O561        C584   1.291       .  A
O561       Eu577   2.475       .  S
O562        C585   1.310       .  A
O562       Eu578   2.542       .  S
O563        C586   1.293       .  A
O563       Eu579   2.485       .  S
O564        C587   1.306       .  A
O564       Eu579   2.523       .  S
O565        C588   1.294       .  A
O565       Eu578   2.490       .  S
O566        C589   1.308       .  A
O566       Eu580   2.533       .  S
O567        C590   1.294       .  A
O567       Eu580   2.492       .  S
O568        C589   1.279       .  A
O568       Eu578   2.392       .  S
O569        C590   1.297       .  A
O569       Eu579   2.477       .  S
O570        C585   1.278       .  A
O570       Eu576   2.383       .  S
O571        C588   1.299       .  A
O571       Eu577   2.488       .  S
O572        C587   1.282       .  A
O572       Eu577   2.409       .  S
O573        C586   1.298       .  A
O573       Eu576   2.481       .  S
O574        C583   1.279       .  A
O574       Eu580   2.393       .  S
O575        C584   1.297       .  A
O575       Eu580   2.474       .  S
Eu576       O594   2.324       .  S
Eu576       O582   2.349       .  S
Eu577       O581   2.371       .  S
Eu577       O592   2.359       .  S
Eu578       O592   2.377       .  S
Eu578       O582   2.347       .  S
Eu579       O581   2.326       .  S
Eu579       O594   2.358       .  S
Eu580       O581   2.342       .  S
Eu580       O592   2.328       .  S
Eu580       O594   2.379       .  S
Eu580       O582   2.346       .  S
H591        O592   0.963       .  S
H593        O594   0.963       .  S
O595        C606   1.305       .  A
O595      Eu3115   2.517   1_445  S
O596        C607   1.292       .  A
O596      Eu1458   2.483   1_545  S
O597       C1436   1.310       .  A
O597       Eu603   2.546   1_565  S
O598        C609   1.294       .  A
O598       Eu603   2.491       .  S
O599        C609   1.301       .  A
O599       Eu633   2.494       .  S
O600        C608   1.282       .  A
O600       Eu632   2.411       .  S
O601        C607   1.298       .  A
O601       Eu603   2.479       .  S
O602        C606   1.281       .  A
O602       Eu603   2.402       .  S
Eu603       O613   2.379       .  S
Eu603       O604   2.350       .  S
Eu603      O1433   2.355   1_545  S
Eu603      O1439   2.324   1_545  S
O604       Eu633   2.327       .  S
O604      Eu1458   2.369   1_545  S
O605       Eu632   2.353       .  S
O605      Eu1431   2.355       .  S
O605      Eu2287   2.355   1_455  S
C608       O1425   1.310       .  A
H610        O611   0.963       .  S
O611       Eu632   2.375       .  S
O611       Eu630   2.354       .  S
O611      Eu1431   2.324       .  S
H612        O613   0.962       .  S
O613       Eu633   2.354       .  S
O613      Eu3115   2.322   1_445  S
O614        C637   1.306       .  A
O614       Eu630   2.524       .  S
O615        C638   1.293       .  A
O615       Eu631   2.485       .  S
O616        C639   1.294       .  A
O616       Eu632   2.491       .  S
O617        C640   1.310       .  A
O617       Eu633   2.541       .  S
O618        C641   1.293       .  A
O618      Eu2289   2.487       .  S
O619        C642   1.308       .  A
O619      Eu2288   2.533       .  S
O620        C643   1.292       .  A
O620       Eu634   2.477       .  S
O621        C644   1.308       .  A
O621       Eu634   2.533       .  S
O622        C643   1.299       .  A
O622      Eu2288   2.483       .  S
O623       C1472   1.281       .  A
O623      Eu2289   2.404       .  S
O624        C639   1.298       .  A
O624       Eu630   2.478       .  S
O625        C642   1.279       .  A
O625       Eu631   2.395       .  S
O626        C641   1.296       .  A
O626      Eu1459   2.469   1_545  S
O627        C640   1.279       .  A
O627      Eu1458   2.393   1_545  S
O628        C637   1.282   1_655  A
O628      Eu2290   2.411       .  S
O629        C638   1.300       .  A
O629       Eu634   2.490       .  S
Eu630      O1424   2.483       .  S
Eu630      O1455   2.393       .  S
Eu630       O648   2.358       .  S
Eu630       O636   2.324       .  S
Eu630      O1432   2.369       .  S
Eu631      O3079   2.517       .  S
Eu631      O1454   2.469       .  S
Eu631       O635   2.342       .  S
Eu631       O646   2.372       .  S
Eu631      O2261   2.355       .  S
Eu631      O3097   2.322       .  S
Eu632      O2275   2.533   1_455  S
Eu632      O2278   2.483   1_455  S
Eu632       O636   2.347       .  S
Eu632      O2302   2.334   1_455  S
Eu633      O2274   2.487   1_455  S
Eu633      O2279   2.404       .  S
Eu633      O3119   2.372   1_445  S
Eu633      O1476   2.358   1_545  S
Eu634      O2284   2.411       .  S
Eu634       O635   2.323       .  S
Eu634       O646   2.361       .  S
Eu634      O2304   2.358       .  S
Eu634      O2292   2.373       .  S
O635      Eu3117   2.372       .  S
O636      Eu2290   2.373   1_455  S
C637       C1733   1.485       .  S
C644       C1058   1.484       .  S
C644       O1451   1.281       .  A
H645        O646   0.963       .  S
O646      Eu2288   2.334       .  S
H647        O648   0.965       .  S
O648      Eu1461   2.358       .  S
O648      Eu2290   2.358   1_455  S
C649        C650   1.409       .  A
C649        C654   1.396       .  A
C649       Br656   1.926       .  S
C650        C651   1.402       .  A
C651        C652   1.397       .  A
C651       Br658   1.929       .  S
C652        C653   1.410       .  A
C652       Br657   1.933       .  S
C653        C654   1.401       .  A
C654       Br655   1.931       .  S
C659        C660   1.402       .  A
C659        C664   1.397       .  A
C659       Br666   1.933   1_455  S
C660       C1947   1.460   1_455  S
C660        C661   1.414   1_554  A
C661        C662   1.396   1_556  A
C661       Br668   1.929       .  S
C662        C663   1.401       .  A
C662       Br667   1.934   1_554  S
C663        C664   1.415       .  A
C664       Br665   1.933       .  S
C669        C670   1.405       .  A
C669        C674   1.397       .  A
C669       Br676   1.932       .  S
C670        C671   1.410       .  A
C671        C672   1.397       .  A
C671       Br678   1.932       .  S
C672        C673   1.405       .  A
C672       Br677   1.932       .  S
C673       C1940   1.457       .  S
C673        C674   1.409       .  A
C674      Br2331   1.929       .  S
Br675      C2330   1.929   1_455  S
C679        C684   1.396       .  A
C679       C1508   1.411       .  A
C679       Br686   1.933       .  S
C680        C681   1.401       .  A
C680       C1507   1.411   1_545  A
C681       C1510   1.396   1_545  A
C681       Br688   1.930       .  S
C682        C683   1.412       .  A
C682       C1509   1.396       .  A
C682       Br687   1.934       .  S
C683        C684   1.401       .  A
C684       Br685   1.931       .  S
C689        C690   1.406       .  A
C689        C694   1.399       .  A
C689       Br696   1.886       .  S
C690        C691   1.403       .  A
C691        C692   1.401       .  A
C691       Br698   1.932       .  S
C692        C693   1.408       .  A
C692       Br697   1.891   1_545  S
C693       C1074   1.484   1_545  S
C693        C694   1.403       .  A
C694       Br695   1.936       .  S
C699        C700   1.404       .  A
C699        C704   1.396       .  A
C699       Br706   1.932       .  S
C700        C701   1.409       .  A
C701        C702   1.398       .  A
C701       Br708   1.932       .  S
C702        C703   1.404       .  A
C702       Br707   1.931       .  S
C703        C704   1.409       .  A
C704       Br705   1.932       .  S
C709        C710   1.416       .  A
C709        C714   1.396       .  A
C709       Br716   1.926       .  S
C710        C711   1.402       .  A
C711        C712   1.395       .  A
C711       Br718   1.933       .  S
C712        C713   1.414       .  A
C712       Br717   1.933       .  S
C713       C1038   1.456   1_545  S
C713        C714   1.400       .  A
C714       Br715   1.935       .  S
C719        C720   1.416       .  A
C719        C724   1.396       .  A
C719       Br726   1.925       .  S
C720        C721   1.402       .  A
C721        C722   1.395       .  A
C721       Br728   1.933       .  S
C722        C723   1.413       .  A
C722       Br727   1.933       .  S
C723        C724   1.399       .  A
C724       Br725   1.934       .  S
C729        C730   1.404       .  A
C729        C734   1.397       .  A
C729       Br736   1.931       .  S
C730       C1559   1.410   1_545  A
C731        C732   1.396       .  A
C731       C1558   1.410       .  A
C731       Br738   1.933   1_554  S
C732        C733   1.404       .  A
C732       Br737   1.933       .  S
C733       C1562   1.408       .  A
C734       C1561   1.408   1_545  A
C734       Br735   1.928       .  S
C739        C740   1.409       .  A
C739        C744   1.398       .  A
C739       Br746   1.928       .  S
C740        C741   1.404       .  A
C741        C742   1.396       .  A
C741       Br748   1.933       .  S
C742        C743   1.410       .  A
C742       Br747   1.934       .  S
C743        C744   1.403       .  A
C744       Br745   1.930       .  S
C749        C750   1.405       .  A
C749        C754   1.396       .  A
C749       Br756   1.931       .  S
C750        C751   1.409       .  A
C751        C752   1.396       .  A
C751      Br2414   1.928       .  S
C752        C753   1.403       .  A
C752      Br2413   1.932       .  S
C753        C754   1.409       .  A
C754       Br755   1.932       .  S
Br757      C2408   1.932   1_455  S
Br758      C2407   1.928   1_455  S
C759        C760   1.413       .  A
C759        C764   1.396       .  A
C759       Br766   1.931       .  S
C760        C761   1.401       .  A
C761        C762   1.395       .  A
C761       Br768   1.933       .  S
C762        C763   1.415       .  A
C762       Br767   1.937       .  S
C763        C764   1.401       .  A
C764       Br765   1.932       .  S
C769        C770   1.401       .  A
C769        C774   1.394       .  A
C769       Br776   1.935       .  S
C770        C771   1.413       .  A
C771        C772   1.397       .  A
C771       Br778   1.931       .  S
C772        C773   1.402       .  A
C772       Br777   1.932       .  S
C773        C774   1.415       .  A
C774       Br775   1.934       .  S
C779        C780   1.411       .  A
C779        C784   1.395       .  A
C779       Br786   1.931       .  S
C780        C781   1.402       .  A
C781        C782   1.398       .  A
C781       Br788   1.929       .  S
C782        C783   1.411       .  A
C782       Br787   1.932       .  S
C783        C784   1.401       .  A
C784       Br785   1.931       .  S
C789        C790   1.404       .  A
C789        C794   1.396       .  A
C789       Br796   1.932       .  S
C790        C791   1.409       .  A
C791        C792   1.399       .  A
C791       Br798   1.931   1_554  S
C792        C793   1.405       .  A
C792       Br797   1.931       .  S
C793        C794   1.410       .  A
C794       Br795   1.930       .  S
C799        C800   1.409       .  A
C799        C804   1.395       .  A
C799       Br806   1.932       .  S
C800       C1695   1.453   1_455  S
C800       C2457   1.404   1_455  A
C801       C2456   1.404       .  A
C801       C2458   1.397       .  A
C801       Br808   1.931       .  S
C802        C803   1.409       .  A
C802       C2457   1.397   1_455  A
C802      Br2463   1.932       .  S
C803        C804   1.404       .  A
C804       Br805   1.931       .  S
Br807      C2458   1.932       .  S
C809        C810   1.413       .  A
C809        C814   1.397       .  A
C809       Br816   1.934       .  S
C810        C811   1.402       .  A
C811        C812   1.394       .  A
C811       Br818   1.933       .  S
C812        C813   1.413       .  A
C812       Br817   1.936       .  S
C813        C814   1.402       .  A
C814       Br815   1.931       .  S
C819        C820   1.402       .  A
C819        C824   1.389       .  A
C819       Br826   1.936       .  S
C820       C1668   1.441       .  S
C820        C821   1.407       .  A
C821        C822   1.394       .  A
C821      Br2484   1.932       .  S
C822        C823   1.404       .  A
C822       Br827   1.930       .  S
C823        C824   1.410       .  A
C824      Br1653   1.934   1_545  S
Br825      C1652   1.934       .  S
Br828      C2477   1.932   1_455  S
C829       C1326   1.493       .  S
C830        C831   1.388       .  A
C831       C1651   1.444       .  S
C831        C832   1.381       .  A
C832        C833   1.386       .  A
C832        H836   1.086       .  S
C833       C1164   1.477       .  S
C833        C834   1.422       .  A
C834        H837   1.082       .  S
C838       C1357   1.492       .  S
C838        C839   1.400       .  A
C838        C843   1.427       .  A
C839        C840   1.386       .  A
C839        H844   1.084       .  S
C840       C3304   1.441   1_455  S
C840        C841   1.378       .  A
C841        C842   1.384       .  A
C841        H845   1.085   1_455  S
C842       C1434   1.479       .  S
C842        C843   1.424       .  A
C843        H846   1.082       .  S
C847        C848   1.426       .  A
C847        C852   1.407       .  A
C848        C849   1.427       .  A
C848        H853   1.082       .  S
C849       C1362   1.483       .  S
C849        C850   1.388       .  A
C850        C851   1.379       .  A
C850        H854   1.085       .  S
C851       C1638   1.454       .  S
C851        C852   1.389       .  A
C852        H855   1.084       .  S
C856       C1202   1.502       .  S
C856        C857   1.427       .  A
C856        C861   1.408       .  A
C857        C858   1.429       .  A
C857        H862   1.083       .  S
C858       C1218   1.482       .  S
C858        C859   1.384       .  A
C859        C860   1.381       .  A
C859        H863   1.086       .  S
C860       C1641   1.454       .  S
C860        C861   1.391       .  A
C861        H864   1.084       .  S
C865       C1471   1.500       .  S
C865        C866   1.407       .  A
C865        C870   1.428       .  A
C866        C867   1.390       .  A
C866       H2527   1.084       .  S
C867       C3284   1.453       .  S
C867        C868   1.380       .  A
C868        C869   1.388       .  A
C868        H872   1.085       .  S
C869       C1272   1.483       .  S
C869        C870   1.426       .  A
C870        H873   1.083       .  S
H871       C2522   1.084       .  S
C874       C1437   1.505       .  S
C874        C875   1.408       .  A
C874        C879   1.428       .  A
C875        C876   1.392       .  A
C875        H880   1.084       .  S
C876       C1631   1.453       .  S
C876        C877   1.381       .  A
C877        C878   1.386       .  A
C877        H881   1.085       .  S
C878       C1360   1.487       .  S
C878        C879   1.431       .  A
C879        H882   1.083       .  S
C883       C1221   1.504   1_556  S
C883        C884   1.410   1_556  A
C883        C888   1.426       .  A
C884        C885   1.392       .  A
C884        H889   1.083       .  S
C885       C1618   1.456       .  S
C885        C886   1.381   1_554  A
C886        C887   1.386       .  A
C886        H890   1.085       .  S
C887       C1195   1.484       .  S
C887        C888   1.429       .  A
C888        H891   1.083       .  S
C892       C1255   1.504       .  S
C892        C893   1.428       .  A
C892        C897   1.409       .  A
C893        C894   1.427       .  A
C893        H898   1.083       .  S
C894       C1380   1.484       .  S
C894        C895   1.388       .  A
C895        C896   1.381       .  A
C895        H899   1.085       .  S
C896       C1621   1.457       .  S
C896        C897   1.392       .  A
C897        H900   1.084       .  S
C901       C1274   1.499       .  S
C901        C902   1.407       .  A
C901        C906   1.427       .  A
C902       C2559   1.388       .  A
C902        H907   1.084       .  S
C903       C1611   1.453       .  S
C903       C2558   1.388       .  A
C903        C904   1.380       .  A
C904       C2561   1.390       .  A
C904        H908   1.085       .  S
C905       C3121   1.485       .  S
C905       C2560   1.390       .  A
C905        C906   1.427       .  A
C906        H909   1.083       .  S
C910        C911   1.408       .  A
C910        C915   1.428       .  A
C911        C912   1.392       .  A
C911        H916   1.084       .  S
C912       C1608   1.455       .  S
C912        C913   1.383       .  A
C913        C914   1.387       .  A
C913        H917   1.085       .  S
C914       C1411   1.485       .  S
C914        C915   1.428       .  A
C915        H918   1.083       .  S
C919       C1382   1.497       .  S
C919        C920   1.406       .  A
C919        C924   1.427       .  A
C920        C921   1.388       .  A
C920        H925   1.084       .  S
C921       C1598   1.455       .  S
C921        C922   1.379       .  A
C922        C923   1.388       .  A
C922        H926   1.085       .  S
C923       C1249   1.483       .  S
C923        C924   1.428       .  A
C924        H927   1.083       .  S
C928       C1418   1.501   1_545  S
C929        C930   1.427       .  A
C930       C1303   1.478       .  S
C930        C931   1.383       .  A
C931        C932   1.381       .  A
C931        H935   1.086       .  S
C932       C1601   1.457       .  S
C932        C933   1.392       .  A
C937       C1196   1.499       .  S
C937        C938   1.406       .  A
C937        C942   1.428       .  A
C938        C939   1.389       .  A
C938        H943   1.084       .  S
C939       C1588   1.456       .  S
C939        C940   1.380       .  A
C940        C941   1.389       .  A
C940        H944   1.085       .  S
C941       C1358   1.485       .  S
C941        C942   1.428       .  A
C942        H945   1.083       .  S
C946       C1165   1.499       .  S
C946        C947   1.408       .  A
C946        C951   1.425       .  A
C947        H952   1.084       .  S
C948       C1591   1.456       .  S
C948        C949   1.380       .  A
C949        H953   1.086       .  S
C950        C951   1.426       .  A
C951        H954   1.083       .  S
C955       C1328   1.501       .  S
C955        C956   1.408       .  A
C955        C960   1.426       .  A
C956        C957   1.391       .  A
C956        H961   1.084       .  S
C957       C1581   1.452       .  S
C957        C958   1.380       .  A
C958        C959   1.386       .  A
C958        H962   1.085       .  S
C959       C1470   1.483       .  S
C959        C960   1.428       .  A
C960        H963   1.083       .  S
C964       C1364   1.499       .  S
C964        C965   1.408       .  A
C964        C969   1.426       .  A
C965       C2622   1.390   1_455  A
C965        H970   1.084       .  S
C966       C1578   1.455       .  S
C966       C2621   1.390       .  A
C966        C967   1.379       .  A
C967        C968   1.389       .  A
C967        H971   1.085       .  S
C968       C1199   1.482       .  S
C968       C2625   1.426       .  A
C969       C2624   1.426   1_455  A
C969        H972   1.083       .  S
C973       C1568   1.455       .  S
C973        C974   1.380       .  A
C973        C978   1.389       .  A
C974        C975   1.390       .  A
C974        H979   1.085       .  S
C975       C1275   1.487       .  S
C975        C976   1.427       .  A
C976        C977   1.428       .  A
C976        H980   1.082       .  S
C977       C1435   1.500       .  S
C977        C978   1.408       .  A
C978        H981   1.084       .  S
C982       C1466   1.504       .  S
C982        C983   1.407       .  A
C982        C987   1.428       .  A
C983        C984   1.392       .  A
C983        H988   1.084       .  S
C984       C1571   1.453       .  S
C984        C985   1.383       .  A
C985        C986   1.386       .  A
C985        H989   1.085       .  S
C986       C1327   1.486       .  S
C986        C987   1.429       .  A
C987        H990   1.083       .  S
C991       C1251   1.502       .  S
C991        C992   1.408       .  A
C991        C996   1.425   1_554  A
C992        C993   1.393       .  A
C992        H997   1.084       .  S
C993       C1558   1.453       .  S
C993        C994   1.382   1_554  A
C994        C995   1.385       .  A
C994        H998   1.085       .  S
C995       C1197   1.481       .  S
C995        C996   1.427       .  A
C996        H999   1.083       .  S
C1000      C1253   1.500       .  S
C1000      C1001   1.408       .  A
C1000      C1005   1.428       .  A
C1001      C1002   1.390       .  A
C1001      H1006   1.084       .  S
C1002      C1561   1.454       .  S
C1002      C1003   1.379       .  A
C1003      C1004   1.388       .  A
C1003      H1007   1.085       .  S
C1004      C1415   1.485       .  S
C1004      C1005   1.427       .  A
C1005      H1008   1.082       .  S
C1009      C1306   1.501       .  S
C1009      C1010   1.407       .  A
C1009      C1014   1.428       .  A
C1010      C1011   1.391       .  A
C1010      H1015   1.084       .  S
C1011      C1551   1.455       .  S
C1011      C1012   1.380       .  A
C1012      C1013   1.385       .  A
C1012      H1016   1.086       .  S
C1013      C1468   1.480       .  S
C1013      C1014   1.426       .  A
C1014      H1017   1.082       .  S
C1018      C2964   1.502       .  S
C1018      C1019   1.409       .  A
C1018      C1023   1.425       .  A
C1019      C1020   1.393       .  A
C1019      H1024   1.084       .  S
C1020      C1548   1.459       .  S
C1020      C1021   1.379       .  A
C1021      C1022   1.385       .  A
C1021      H1025   1.085       .  S
C1022      C1413   1.481       .  S
C1022      C1023   1.429       .  A
C1023      H1026   1.083       .  S
C1027      C1309   1.481       .  S
C1027      C1028   1.385       .  A
C1027      C2688   1.429       .  A
C1028      C1029   1.380       .  A
C1028      H1033   1.085       .  S
C1029      C1538   1.460       .  S
C1029      C2686   1.394       .  A
C1030      C2685   1.394   1_455  A
C1030      C1031   1.408       .  A
C1030      H1034   1.084       .  S
C1031      C1381   1.502       .  S
C1031      C1032   1.425       .  A
C1032      C2683   1.429   1_455  A
C1032      H1035   1.083       .  S
C1036      C1412   1.497       .  S
C1036      C1037   1.406       .  A
C1036      C1041   1.425       .  A
C1037      C1038   1.390       .  A
C1037      H1042   1.084       .  S
C1038      C1039   1.379       .  A
C1039      C1040   1.386       .  A
C1039      H1043   1.086   1_565  S
C1040      C1256   1.477       .  S
C1040      C1041   1.425       .  A
C1041      H1044   1.082       .  S
C1045      C1273   1.501       .  S
C1045      C1046   1.409       .  A
C1045      C1050   1.426       .  A
C1046      C1047   1.391       .  A
C1046      H1051   1.084       .  S
C1047      C1528   1.453       .  S
C1047      C1048   1.380       .  A
C1048      C1049   1.386       .  A
C1048      H1052   1.085       .  S
C1049      C1417   1.482       .  S
C1049      C1050   1.428       .  A
C1050      H1053   1.083       .  S
C1054      C1304   1.502       .  S
C1054      C1055   1.408       .  A
C1054      C1059   1.428       .  A
C1055      H1060   1.084       .  S
C1056      C1531   1.454       .  S
C1056      C1057   1.380       .  A
C1057      H1061   1.085       .  S
C1058      C1059   1.428       .  A
C1059      H1062   1.082       .  S
C1063      C1359   1.508       .  S
C1063      C1064   1.407       .  A
C1063      C1068   1.427       .  A
C1064      C1065   1.402       .  A
C1064      H1069   1.080       .  S
C1065      C1518   1.487       .  S
C1065      C1066   1.394       .  A
C1066      C1067   1.390       .  A
C1066      H1070   1.083       .  S
C1067      C1167   1.494       .  S
C1067      C1068   1.425       .  A
C1068      H1071   1.082       .  S
C1072      C1361   1.509       .  S
C1072      C1073   1.409       .  A
C1072      C1077   1.427       .  A
C1073      C1074   1.403       .  A
C1073      H1078   1.081       .  S
C1074      C1075   1.396       .  A
C1075      C1076   1.387       .  A
C1076      C1436   1.493       .  S
C1076      C1077   1.426       .  A
C1077      H1080   1.083       .  S
C1081      C1469   1.499       .  S
C1081      C1082   1.408       .  A
C1081      C1086   1.426       .  A
C1082      C1083   1.388       .  A
C1082      H1087   1.084       .  S
C1083      C1508   1.453       .  S
C1083      C1084   1.379       .  A
C1084      C1085   1.387       .  A
C1084      H1088   1.086       .  S
C1085      C1307   1.480       .  S
C1085      C1086   1.426       .  A
C1086      H1089   1.082       .  S
C1090      C1467   1.501       .  S
C1090      C1091   1.408       .  A
C1090      C1095   1.426       .  A
C1091      C1092   1.390       .  A
C1091      H1096   1.084       .  S
C1092      C1511   1.452       .  S
C1092      C1093   1.380       .  A
C1093      C1094   1.385       .  A
C1093      H1097   1.085       .  S
C1094      C1329   1.481       .  S
C1094      C1095   1.429       .  A
C1095      H1098   1.083       .  S
C1099      C1416   1.504       .  S
C1099      C1100   1.409       .  A
C1099      C1104   1.427       .  A
C1100      C1101   1.393       .  A
C1100      H1105   1.084       .  S
C1101      C1498   1.455       .  S
C1101      C1102   1.382       .  A
C1102      C1103   1.386       .  A
C1102      H1106   1.085       .  S
C1103      C1305   1.485       .  S
C1103      C1104   1.429       .  A
C1104      H1107   1.083       .  S
C1108      C1414   1.502       .  S
C1108      C1109   1.428       .  A
C1108      C1113   1.408       .  A
C1109      C1110   1.427       .  A
C1109      H1114   1.083       .  S
C1110      C1252   1.486       .  S
C1110      C1111   1.389       .  A
C1111      C1112   1.380       .  A
C1111      H1115   1.085       .  S
C1112      C3157   1.457   1_455  S
C1112      C1113   1.392       .  A
C1113      H1116   1.084       .  S
C1117      C1250   1.502   1_556  S
C1117      C1118   1.408   1_556  A
C1117      C1122   1.426       .  A
C1118      C1119   1.392       .  A
C1118      H2779   1.084       .  S
C1119      C3144   1.460       .  S
C1119      C1120   1.382   1_554  A
C1120      C1121   1.386       .  A
C1120      H1124   1.085       .  S
C1121      C1201   1.484       .  S
C1121      C1122   1.429       .  A
C1122      H1125   1.083       .  S
H1123      C2774   1.084       .  S
C1126      C1219   1.498       .  S
C1126      C1127   1.426       .  A
C1126      C1131   1.407       .  A
C1127      C1128   1.425       .  A
C1127      H1132   1.083       .  S
C1128      C1383   1.480       .  S
C1128      C1129   1.387       .  A
C1129      C1130   1.379       .  A
C1129      H1133   1.086       .  S
C1130      C1491   1.457       .  S
C1130      C1131   1.391       .  A
C1131      H1134   1.084       .  S
C1135      C1198   1.500       .  S
C1135      C1136   1.407       .  A
C1135      C1140   1.428       .  A
C1136      C1137   1.388       .  A
C1136      H1141   1.084       .  S
C1137      C1481   1.450       .  S
C1137      C1138   1.380       .  A
C1138      C1139   1.388       .  A
C1138      H1142   1.086       .  S
C1139      C1363   1.484       .  S
C1139      C1140   1.427       .  A
C1140      H1143   1.082       .  S
C1144      C1200   1.505       .  S
C1144      C2801   1.409       .  A
C1144      C1149   1.427       .  A
C1145      C2800   1.409   1_455  A
C1145      C1146   1.391       .  A
C1145      H1150   1.083       .  S
C1146      C1478   1.453       .  S
C1146      C1147   1.382       .  A
C1147      C1148   1.386       .  A
C1147      H1151   1.085       .  S
C1148      C1254   1.486       .  S
C1148      C2805   1.430   1_455  A
C1149      C2804   1.430       .  A
C1149      H1152   1.083       .  S
O1153      C1164   1.305       .  A
O1153     Eu1189   2.517       .  S
O1154      C1165   1.294       .  A
O1154     Eu1188   2.489       .  S
O1155      C1166   1.292       .  A
O1155     Eu1161   2.480       .  S
O1156      C1167   1.307       .  A
O1156     Eu1161   2.528       .  S
O1157      C1167   1.285       .  A
O1157     Eu1191   2.425       .  S
O1158      C1166   1.298       .  A
O1158     Eu1190   2.476       .  S
O1159      C1165   1.298       .  A
O1159     Eu1161   2.478       .  S
O1160      C1164   1.282       .  A
O1160     Eu1161   2.407       .  S
Eu1161     O1171   2.361       .  S
Eu1161     O1163   2.367       .  S
Eu1161     O1162   2.326       .  S
Eu1161     O1169   2.360       .  S
O1162     Eu1191   2.364       .  S
O1162     Eu1188   2.342       .  S
O1163     Eu1189   2.325       .  S
O1163     Eu1190   2.343       .  S
H1168      O1169   0.963       .  S
O1169     Eu1190   2.328       .  S
O1169     Eu1188   2.380       .  S
H1170      O1171   0.966       .  S
O1171     Eu1189   2.366       .  S
O1171     Eu1191   2.361       .  S
O1172      C1195   1.309       .  A
O1172     Eu1188   2.539       .  S
O1173      C2852   1.291       .  A
O1173     Eu1189   2.474       .  S
O1174      C1197   1.310       .  A
O1174     Eu1190   2.542       .  S
O1175      C1198   1.292       .  A
O1175     Eu1191   2.476       .  S
O1176      C1199   1.305       .  A
O1176     Eu1191   2.515       .  S
O1177      C1200   1.296       .  A
O1177     Eu1190   2.500       .  S
O1178      C1201   1.311       .  A
O1178     Eu1192   2.549       .  S
O1179      C1202   1.294       .  A
O1179     Eu1192   2.489       .  S
O1180      C1201   1.278       .  A
O1180     Eu1190   2.387       .  S
O1181      C1202   1.299       .  A
O1181     Eu1191   2.487       .  S
O1182      C1197   1.278       .  A
O1182     Eu1188   2.385       .  S
O1183      C1200   1.299       .  A
O1183     Eu1189   2.483       .  S
O1184      C1199   1.282       .  A
O1184     Eu1189   2.411       .  S
O1185      C1198   1.298       .  A
O1185     Eu1188   2.476       .  S
O1186      C1195   1.279       .  A
O1186     Eu1192   2.391       .  S
O1187      C2852   1.299       .  A
O1187     Eu1192   2.480       .  S
Eu1188     O1206   2.320       .  S
Eu1188     O1194   2.348       .  S
Eu1189     O1193   2.366       .  S
Eu1189     O1204   2.361       .  S
Eu1190     O1204   2.381       .  S
Eu1190     O1194   2.349       .  S
Eu1191     O1193   2.330       .  S
Eu1191     O1206   2.358       .  S
Eu1192     O1193   2.345       .  S
Eu1192     O1204   2.320       .  S
Eu1192     O1206   2.380       .  S
Eu1192     O1194   2.346       .  S
C1196      O2829   1.291   1_455  A
C1196      O2843   1.299   1_455  A
H1203      O1204   0.963       .  S
H1205      O1206   0.963       .  S
O1207      C1218   1.312       .  A
O1207     Eu1243   2.554       .  S
O1208      C1219   1.291       .  A
O1208     Eu1242   2.475       .  S
O1209      C1220   1.311   1_565  A
O1209     Eu1215   2.545       .  S
O1210      C1221   1.296   1_556  A
O1210     Eu2871   2.502       .  S
O1211      C1221   1.297       .  A
O1211     Eu1245   2.477       .  S
O1212     Eu1244   2.376       .  S
O1213      C1219   1.298       .  A
O1213     Eu1215   2.479   1_554  S
O1214      C1218   1.277       .  A
O1214     Eu2871   2.378       .  S
Eu1215     O2866   2.502   1_455  S
Eu1215     O2870   2.378       .  S
Eu1215     O2881   2.380   1_456  S
Eu1215     O1217   2.348       .  S
Eu1215     O1216   2.340   1_556  S
Eu1215     O1223   2.327   1_556  S
O1216     Eu2901   2.323   1_455  S
O1216     Eu1242   2.367       .  S
O1217     Eu2899   2.343   1_455  S
H1222      O1223   0.963   1_556  S
O1223     Eu1242   2.360       .  S
H1224      O1225   0.963   1_556  S
O1225     Eu2871   2.380   1_554  S
O1225     Eu1243   2.322   1_554  S
O1225     Eu1245   2.358       .  S
O1226      C1249   1.307       .  A
O1227      C1250   1.294   1_556  A
O1228      C1251   1.295   1_556  A
O1228     Eu1244   2.494       .  S
O1229      C1252   1.307       .  A
O1229     Eu2901   2.526   1_455  S
O1230      C1253   1.292       .  A
O1230     Eu1245   2.483       .  S
O1231      C1254   1.311       .  A
O1231     Eu1244   2.549       .  S
O1232      C1255   1.293       .  A
O1232     Eu1246   2.489       .  S
O1233     Eu2902   2.533       .  S
O1234      C1255   1.297       .  A
O1234     Eu1244   2.476   1_554  S
O1235      C1256   1.279       .  A
O1235     Eu1245   2.393       .  S
O1236      C1251   1.297       .  A
O1237      C1254   1.279   1_655  A
O1237     Eu2071   2.389       .  S
O1238      C1253   1.298       .  A
O1238     Eu1243   2.478   1_554  S
O1239      C1252   1.282       .  A
O1239     Eu1242   2.411       .  S
O1240      C1249   1.281       .  A
O1240     Eu1246   2.406       .  S
O1241      C1250   1.300       .  A
O1241     Eu2902   2.488       .  S
Eu1242     O1260   2.353       .  S
Eu1243     O2065   2.389   1_565  S
Eu1243     O2873   2.343       .  S
Eu1243     O1247   2.346   1_556  S
Eu1243     O2086   2.381   1_566  S
Eu1244     O1258   2.318   1_556  S
Eu1244     O1248   2.345   1_556  S
Eu1245     O2885   2.526       .  S
Eu1245     O2872   2.323       .  S
Eu1245     O1247   2.368       .  S
Eu1245     O2916   2.359       .  S
Eu1246     O2889   2.533   1_455  S
Eu1246     O2897   2.488   1_455  S
Eu1246     O2075   2.328   1_455  S
Eu1246     O1258   2.358       .  S
Eu1246     O1248   2.370       .  S
O1247     Eu2074   2.328   1_565  S
H1257      O1258   0.962   1_556  S
O1258     Eu2071   2.381   1_454  S
H1259      O1260   0.965       .  S
O1260     Eu2901   2.359   1_455  S
O1261      C1272   1.307       .  A
O1261     Eu1297   2.525       .  S
O1262      C1273   1.295       .  A
O1262     Eu1296   2.495       .  S
O1263      C1274   1.291       .  A
O1263     Eu1269   2.477       .  S
O1264      C1275   1.305       .  A
O1264     Eu1269   2.516       .  S
O1265      C1275   1.283       .  A
O1265     Eu1299   2.418       .  S
O1266      C1274   1.298       .  A
O1266     Eu1298   2.478       .  S
O1267      C1273   1.298       .  A
O1267     Eu1269   2.478       .  S
O1268      C1272   1.282       .  A
O1268     Eu1269   2.408       .  S
Eu1269     O1279   2.358       .  S
Eu1269     O1271   2.367       .  S
Eu1269     O1270   2.327       .  S
Eu1269     O1277   2.356       .  S
O1270     Eu1299   2.368       .  S
O1270     Eu1296   2.345       .  S
O1271     Eu1297   2.328       .  S
O1271     Eu1298   2.343       .  S
H1276      O1277   0.963       .  S
O1277     Eu1298   2.321       .  S
O1277     Eu1296   2.382       .  S
H1278      O1279   0.966       .  S
O1279     Eu1297   2.363       .  S
O1279     Eu1299   2.359       .  S
O1280      C1303   1.312       .  A
O1280     Eu1296   2.552       .  S
O1281      C1304   1.293       .  A
O1281     Eu1297   2.485       .  S
O1282      C1305   1.310       .  A
O1282     Eu1298   2.545       .  S
O1283      C1306   1.292       .  A
O1283     Eu1299   2.477       .  S
O1284      C1307   1.307       .  A
O1284     Eu1299   2.526       .  S
O1285      C1308   1.295       .  A
O1285     Eu1298   2.495       .  S
O1286      C1309   1.311       .  A
O1286     Eu1300   2.546       .  S
O1287      C1310   1.294       .  A
O1287     Eu1300   2.493       .  S
O1288      C1309   1.278       .  A
O1288     Eu1298   2.382       .  S
O1289      C1310   1.299       .  A
O1289     Eu1299   2.487       .  S
O1290      C1305   1.279       .  A
O1290     Eu1296   2.391       .  S
O1291      C1308   1.299       .  A
O1291     Eu1297   2.486       .  S
O1292      C1307   1.281       .  A
O1292     Eu1297   2.402       .  S
O1293      C1306   1.299       .  A
O1293     Eu1296   2.482       .  S
O1294      C1303   1.276       .  A
O1294     Eu1300   2.371       .  S
O1295      C1304   1.297       .  A
O1295     Eu1300   2.474       .  S
Eu1296     O1314   2.326       .  S
Eu1296     O1302   2.344       .  S
Eu1297     O1301   2.370       .  S
Eu1297     O1312   2.354       .  S
Eu1298     O1312   2.382       .  S
Eu1298     O1302   2.347       .  S
Eu1299     O1301   2.331       .  S
Eu1299     O1314   2.362       .  S
Eu1300     O1301   2.343       .  S
Eu1300     O1312   2.315       .  S
Eu1300     O1314   2.379       .  S
Eu1300     O1302   2.347       .  S
C1308      C2674   1.502       .  S
H1311      O1312   0.962       .  S
H1313      O1314   0.963       .  S
O1315      C1326   1.290       .  A
O1315     Eu1351   2.466       .  S
O1316      C1327   1.311       .  A
O1316     Eu1350   2.550       .  S
O1317      C1328   1.294       .  A
O1317     Eu1323   2.489       .  S
O1318      C1329   1.310       .  A
O1318     Eu1323   2.542       .  S
O1319      C1329   1.277       .  A
O1319     Eu1353   2.381       .  S
O1320      C1328   1.299       .  A
O1320     Eu1352   2.482       .  S
O1321      C1327   1.279       .  A
O1321     Eu1323   2.390       .  S
O1322      C1326   1.296       .  A
O1322     Eu1323   2.469       .  S
Eu1323     O1333   2.334       .  S
Eu1323     O1325   2.341       .  S
Eu1323     O1324   2.342       .  S
Eu1323     O1331   2.377       .  S
O1324     Eu1353   2.352       .  S
O1324     Eu1350   2.350       .  S
O1325     Eu1351   2.367       .  S
O1325     Eu1352   2.322       .  S
H1330      O1331   0.963       .  S
O1331     Eu1352   2.357       .  S
O1331     Eu1350   2.316       .  S
H1332      O1333   0.963       .  S
O1333     Eu1351   2.363       .  S
O1333     Eu1353   2.377       .  S
O1334      C1357   1.292       .  A
O1334     Eu1350   2.472       .  S
O1335      C1358   1.307       .  A
O1335     Eu1351   2.528       .  S
O1336      C1359   1.293       .  A
O1336     Eu1352   2.484       .  S
O1337      C1360   1.312       .  A
O1337     Eu1353   2.551       .  S
O1338      C1361   1.295       .  A
O1338     Eu1353   2.492       .  S
O1339      C1362   1.308       .  A
O1339     Eu1352   2.530       .  S
O1340      C1363   1.308       .  A
O1340     Eu1354   2.533       .  S
O1341      C1364   1.293       .  A
O1341     Eu1354   2.483       .  S
O1342      C1363   1.281       .  A
O1342     Eu1352   2.402       .  S
O1343      C1364   1.298       .  A
O1343     Eu1353   2.476       .  S
O1344      C1359   1.302       .  A
O1344     Eu1350   2.501       .  S
O1345      C1362   1.282       .  A
O1345     Eu1351   2.403       .  S
O1346      C1361   1.302       .  A
O1346     Eu1351   2.505       .  S
O1347      C1360   1.280       .  A
O1347     Eu1350   2.392       .  S
O1348      C1357   1.298       .  A
O1348     Eu1354   2.478       .  S
O1349      C1358   1.281       .  A
O1349     Eu1354   2.407       .  S
Eu1350     O1368   2.383       .  S
Eu1350     O1356   2.353       .  S
Eu1351     O1355   2.319       .  S
Eu1351     O1366   2.359       .  S
Eu1352     O1366   2.360       .  S
Eu1352     O1356   2.373       .  S
Eu1353     O1355   2.346       .  S
Eu1353     O1368   2.305       .  S
Eu1354     O1355   2.369       .  S
Eu1354     O1366   2.349       .  S
Eu1354     O1368   2.352       .  S
Eu1354     O1356   2.339       .  S
H1365      O1366   0.965       .  S
H1367      O1368   0.961       .  S
O1369      C1380   1.308       .  A
O1369     Eu1405   2.530       .  S
O1370      C1381   1.295       .  A
O1370     Eu1404   2.495       .  S
O1371      C1382   1.291       .  A
O1371     Eu1377   2.475       .  S
O1372      C1383   1.308       .  A
O1372     Eu1377   2.529       .  S
O1373      C1383   1.280       .  A
O1373     Eu1407   2.400       .  S
O1374      C1382   1.299       .  A
O1374     Eu1406   2.479       .  S
O1375      C1381   1.300       .  A
O1375     Eu1377   2.488       .  S
O1376      C1380   1.282       .  A
O1376     Eu1377   2.408       .  S
Eu1377     O1387   2.358       .  S
Eu1377     O1379   2.367       .  S
Eu1377     O1378   2.328       .  S
Eu1377     O1385   2.358       .  S
O1378     Eu1407   2.369       .  S
O1378     Eu1404   2.347       .  S
O1379     Eu1405   2.322       .  S
O1379     Eu1406   2.343       .  S
H1384      O1385   0.962       .  S
O1385     Eu1406   2.318       .  S
O1385     Eu1404   2.381       .  S
H1386      O1387   0.966       .  S
O1387     Eu1405   2.358       .  S
O1387     Eu1407   2.360       .  S
O1388      C1411   1.311       .  A
O1388     Eu1404   2.547       .  S
O1389      C1412   1.291       .  A
O1389     Eu1405   2.475       .  S
O1390      C1413   1.310       .  A
O1390     Eu1406   2.542       .  S
O1391      C1414   1.293       .  A
O1391     Eu1407   2.485       .  S
O1392      C1415   1.306       .  A
O1392     Eu1407   2.523       .  S
O1393      C1416   1.294       .  A
O1393     Eu1406   2.490       .  S
O1394      C1417   1.308       .  A
O1394     Eu1408   2.533       .  S
O1395      C1418   1.294       .  A
O1395     Eu1408   2.492       .  S
O1396      C1417   1.279       .  A
O1396     Eu1406   2.392       .  S
O1397      C1418   1.297       .  A
O1397     Eu1407   2.477       .  S
O1398      C1413   1.278       .  A
O1398     Eu1404   2.383       .  S
O1399      C1416   1.299       .  A
O1399     Eu1405   2.488       .  S
O1400      C1415   1.282       .  A
O1400     Eu1405   2.409       .  S
O1401      C1414   1.298       .  A
O1401     Eu1404   2.481       .  S
O1402      C1411   1.279       .  A
O1402     Eu1408   2.393       .  S
O1403      C1412   1.297       .  A
O1403     Eu1408   2.474       .  S
Eu1404     O1422   2.324       .  S
Eu1404     O1410   2.349       .  S
Eu1405     O1409   2.371       .  S
Eu1405     O1420   2.359       .  S
Eu1406     O1420   2.377       .  S
Eu1406     O1410   2.347       .  S
Eu1407     O1409   2.326       .  S
Eu1407     O1422   2.358       .  S
Eu1408     O1409   2.342       .  S
Eu1408     O1420   2.328       .  S
Eu1408     O1422   2.379       .  S
Eu1408     O1410   2.346       .  S
H1419      O1420   0.963       .  S
H1421      O1422   0.963       .  S
O1423      C1434   1.305       .  A
O1423     Eu2287   2.517   1_455  S
O1424      C1435   1.292       .  A
O1425     Eu1431   2.546       .  S
O1426      C1437   1.294       .  A
O1426     Eu1431   2.491       .  S
O1427      C1437   1.301       .  A
O1427     Eu1461   2.494       .  S
O1428      C1436   1.282       .  A
O1428     Eu1460   2.411       .  S
O1429      C1435   1.298       .  A
O1429     Eu1431   2.479       .  S
O1430      C1434   1.281       .  A
O1430     Eu1431   2.402       .  S
Eu1431     O1441   2.379       .  S
Eu1431     O1432   2.350       .  S
O1432     Eu1461   2.327       .  S
O1433     Eu3115   2.355   1_455  S
O1433     Eu1460   2.353       .  S
H1438      O1439   0.963       .  S
O1439     Eu1460   2.375       .  S
O1439     Eu1458   2.354       .  S
H1440      O1441   0.962       .  S
O1441     Eu2287   2.322   1_455  S
O1441     Eu1461   2.354       .  S
O1442      C1465   1.306       .  A
O1442     Eu1458   2.524       .  S
O1443      C1466   1.293       .  A
O1443     Eu1459   2.485       .  S
O1444      C1467   1.294       .  A
O1444     Eu1460   2.491       .  S
O1445      C1468   1.310       .  A
O1445     Eu1461   2.541       .  S
O1446      C1469   1.293       .  A
O1446     Eu3117   2.487       .  S
O1447      C1470   1.308       .  A
O1447     Eu3116   2.533       .  S
O1448      C1471   1.292       .  A
O1448     Eu1462   2.477       .  S
O1449      C1472   1.308   1_565  A
O1449     Eu1462   2.533       .  S
O1450      C1471   1.299       .  A
O1450     Eu3116   2.483       .  S
O1451     Eu3117   2.404       .  S
O1452      C1467   1.298       .  A
O1452     Eu1458   2.478       .  S
O1453      C1470   1.279       .  A
O1453     Eu1459   2.395       .  S
O1454      C1469   1.296       .  A
O1455      C1468   1.279       .  A
O1456      C1465   1.282   1_655  A
O1456     Eu3118   2.411       .  S
O1457      C1466   1.300       .  A
O1457     Eu1462   2.490       .  S
Eu1458     O1476   2.358       .  S
Eu1458     O1464   2.324       .  S
Eu1459     O2251   2.517   1_565  S
Eu1459     O3089   2.355       .  S
Eu1459     O2269   2.322   1_565  S
Eu1459     O1463   2.342       .  S
Eu1459     O1474   2.372       .  S
Eu1460     O3103   2.533   1_455  S
Eu1460     O3106   2.483   1_455  S
Eu1460     O3130   2.334   1_455  S
Eu1460     O1464   2.347       .  S
Eu1461     O3102   2.487   1_455  S
Eu1461     O3107   2.404       .  S
Eu1461     O2291   2.372   1_455  S
Eu1462     O3112   2.411       .  S
Eu1462     O1463   2.323       .  S
Eu1462     O1474   2.361       .  S
Eu1462     O3132   2.358       .  S
Eu1462     O3120   2.373       .  S
O1463     Eu2289   2.372   1_565  S
O1464     Eu3118   2.373   1_455  S
C1465      C2561   1.485       .  S
H1473      O1474   0.963       .  S
O1474     Eu3116   2.334       .  S
H1475      O1476   0.965       .  S
O1476     Eu3118   2.358   1_455  S
C1477      C1478   1.409       .  A
C1477      C1482   1.396       .  A
C1477     Br1484   1.926       .  S
C1478      C1479   1.402       .  A
C1479      C1480   1.397       .  A
C1479     Br1486   1.929       .  S
C1480      C1481   1.410       .  A
C1480     Br1485   1.933       .  S
C1481      C1482   1.401       .  A
C1482     Br1483   1.931       .  S
C1487      C1488   1.402       .  A
C1487      C1492   1.397       .  A
C1487     Br1494   1.933   1_455  S
C1488      C2775   1.460   1_455  S
C1488      C1489   1.414   1_554  A
C1489      C1490   1.396   1_556  A
C1489     Br1496   1.929       .  S
C1490      C1491   1.401       .  A
C1490     Br1495   1.934   1_554  S
C1491      C1492   1.415       .  A
C1492     Br1493   1.933       .  S
C1497      C1498   1.405       .  A
C1497      C1502   1.397       .  A
C1497     Br1504   1.932       .  S
C1498      C1499   1.410       .  A
C1499      C1500   1.397       .  A
C1499     Br1506   1.932       .  S
C1500      C1501   1.405       .  A
C1500     Br1505   1.932       .  S
C1501      C2768   1.457       .  S
C1501      C1502   1.409       .  A
C1502     Br3159   1.929       .  S
Br1503     C3158   1.929   1_455  S
C1507      C1512   1.396       .  A
C1507     Br1514   1.933       .  S
C1508      C1509   1.401       .  A
C1509     Br1516   1.930       .  S
C1510      C1511   1.412       .  A
C1510     Br1515   1.934   1_565  S
C1511      C1512   1.401       .  A
C1512     Br1513   1.931       .  S
C1517      C1518   1.406       .  A
C1517      C1522   1.399       .  A
C1517     Br1524   1.886       .  S
C1518      C1519   1.403       .  A
C1519      C1520   1.401       .  A
C1519     Br1526   1.932       .  S
C1520      C1521   1.408       .  A
C1520     Br1525   1.891       .  S
C1521      C1522   1.403       .  A
C1522     Br1523   1.936       .  S
C1527      C1528   1.404       .  A
C1527      C1532   1.396       .  A
C1527     Br1534   1.932       .  S
C1528      C1529   1.409       .  A
C1529      C1530   1.398       .  A
C1529     Br1536   1.932       .  S
C1530      C1531   1.404       .  A
C1530     Br1535   1.931       .  S
C1531      C1532   1.409       .  A
C1532     Br1533   1.932       .  S
C1537      C1538   1.416       .  A
C1537      C1542   1.396       .  A
C1537     Br1544   1.926       .  S
C1538      C1539   1.402       .  A
C1539      C1540   1.395       .  A
C1539     Br1546   1.933       .  S
C1540      C1541   1.414       .  A
C1540     Br1545   1.933       .  S
C1541      C1542   1.400       .  A
C1542     Br1543   1.935       .  S
C1547      C1548   1.416       .  A
C1547      C1552   1.396       .  A
C1547     Br1554   1.925       .  S
C1548      C1549   1.402       .  A
C1549      C1550   1.395       .  A
C1549     Br1556   1.933       .  S
C1550      C1551   1.413       .  A
C1550     Br1555   1.933       .  S
C1551      C1552   1.399       .  A
C1552     Br1553   1.934       .  S
C1557      C1558   1.404       .  A
C1557      C1562   1.397       .  A
C1557     Br1564   1.931       .  S
C1559      C1560   1.396       .  A
C1559     Br1566   1.933   1_554  S
C1560      C1561   1.404       .  A
C1560     Br1565   1.933       .  S
C1562     Br1563   1.928       .  S
C1567      C1568   1.409       .  A
C1567      C1572   1.398       .  A
C1567     Br1574   1.928       .  S
C1568      C1569   1.404       .  A
C1569      C1570   1.396       .  A
C1569     Br1576   1.933       .  S
C1570      C1571   1.410       .  A
C1570     Br1575   1.934       .  S
C1571      C1572   1.403       .  A
C1572     Br1573   1.930       .  S
C1577      C1578   1.405       .  A
C1577      C1582   1.396       .  A
C1577     Br1584   1.931       .  S
C1578      C1579   1.409       .  A
C1579      C1580   1.396       .  A
C1579     Br3242   1.928       .  S
C1580      C1581   1.403       .  A
C1580     Br3241   1.932       .  S
C1581      C1582   1.409       .  A
C1582     Br1583   1.932       .  S
Br1585     C3236   1.932   1_455  S
Br1586     C3235   1.928   1_455  S
C1587      C1588   1.413       .  A
C1587      C1592   1.396       .  A
C1587     Br1594   1.931       .  S
C1588      C1589   1.401       .  A
C1589      C1590   1.395       .  A
C1589     Br1596   1.933       .  S
C1590      C1591   1.415       .  A
C1590     Br1595   1.937       .  S
C1591      C1592   1.401       .  A
C1592     Br1593   1.932       .  S
C1597      C1598   1.401       .  A
C1597      C1602   1.394       .  A
C1597     Br1604   1.935       .  S
C1598      C1599   1.413       .  A
C1599      C1600   1.397       .  A
C1599     Br1606   1.931       .  S
C1600      C1601   1.402       .  A
C1600     Br1605   1.932       .  S
C1601      C1602   1.415       .  A
C1602     Br1603   1.934       .  S
C1607      C1608   1.411       .  A
C1607      C1612   1.395       .  A
C1607     Br1614   1.931       .  S
C1608      C1609   1.402       .  A
C1609      C1610   1.398       .  A
C1609     Br1616   1.929       .  S
C1610      C1611   1.411       .  A
C1610     Br1615   1.932       .  S
C1611      C1612   1.401       .  A
C1612     Br1613   1.931       .  S
C1617      C1618   1.404       .  A
C1617      C1622   1.396       .  A
C1617     Br1624   1.932       .  S
C1618      C1619   1.409       .  A
C1619      C1620   1.399       .  A
C1619     Br1626   1.931   1_554  S
C1620      C1621   1.405       .  A
C1620     Br1625   1.931       .  S
C1621      C1622   1.410       .  A
C1622     Br1623   1.930       .  S
C1627      C1628   1.409       .  A
C1627      C1632   1.395       .  A
C1627     Br1634   1.932       .  S
C1628      C2523   1.453   1_455  S
C1628      C3285   1.404   1_455  A
C1629      C3284   1.404       .  A
C1629      C3286   1.397       .  A
C1629     Br1636   1.931       .  S
C1630      C3285   1.397   1_455  A
C1630      C1631   1.409       .  A
C1630     Br3291   1.932       .  S
C1631      C1632   1.404       .  A
C1632     Br1633   1.931       .  S
Br1635     C3286   1.932       .  S
C1637      C1638   1.413       .  A
C1637      C1642   1.397       .  A
C1637     Br1644   1.934       .  S
C1638      C1639   1.402       .  A
C1639      C1640   1.394       .  A
C1639     Br1646   1.933       .  S
C1640      C1641   1.413       .  A
C1640     Br1645   1.936       .  S
C1641      C1642   1.402       .  A
C1642     Br1643   1.931       .  S
C1647      C1648   1.402       .  A
C1647      C1652   1.389       .  A
C1647     Br1654   1.936       .  S
C1648      C2496   1.441       .  S
C1648      C1649   1.407       .  A
C1649      C1650   1.394       .  A
C1649     Br3312   1.932       .  S
C1650      C1651   1.404       .  A
C1650     Br1655   1.930       .  S
C1651      C1652   1.410       .  A
Br1656     C3305   1.932   1_455  S
C1657      C2154   1.493       .  S
C1657      C2486   1.399       .  A
C1657      C2490   1.426       .  A
C1658      C2485   1.399   1_545  A
C1658      C1659   1.388       .  A
C1658      H2491   1.084       .  S
C1659      C2479   1.444       .  S
C1659      C1660   1.381       .  A
C1660      C1661   1.386       .  A
C1660      H1664   1.086       .  S
C1661      C1992   1.477       .  S
C1661      C1662   1.422       .  A
C1662      C2485   1.426   1_545  A
C1662      H1665   1.082   1_545  S
H1663      C2486   1.084       .  S
C1666      C2185   1.492       .  S
C1666      C1667   1.400       .  A
C1666      C1671   1.427       .  A
C1667      C1668   1.386       .  A
C1667      H1672   1.084       .  S
C1668      C1669   1.378       .  A
C1669      C1670   1.384       .  A
C1669      H1673   1.085       .  S
C1670      C2262   1.479       .  S
C1670      C1671   1.424       .  A
C1671      H1674   1.082       .  S
C1675      C2822   1.498       .  S
C1675      C1676   1.426       .  A
C1675      C1680   1.407       .  A
C1676      C1677   1.427       .  A
C1676      H1681   1.082       .  S
C1677      C2190   1.483       .  S
C1677      C1678   1.388       .  A
C1678      C1679   1.379       .  A
C1678      H1682   1.085       .  S
C1679      C2466   1.454       .  S
C1679      C1680   1.389       .  A
C1680      H1683   1.084       .  S
C1684      C2030   1.502       .  S
C1684      C1685   1.427       .  A
C1684      C1689   1.408       .  A
C1685      C1686   1.429       .  A
C1685      H1690   1.083       .  S
C1686      C2046   1.482       .  S
C1686      C1687   1.384       .  A
C1687      C1688   1.381       .  A
C1687      H1691   1.086       .  S
C1688      C2469   1.454       .  S
C1688      C1689   1.391       .  A
C1689      H1692   1.084       .  S
C1693      C2299   1.500       .  S
C1693      C1694   1.407       .  A
C1693      C1698   1.428       .  A
C1694      C1695   1.390       .  A
C1695      C1696   1.380       .  A
C1696      C1697   1.388       .  A
C1696      H1700   1.085       .  S
C1697      C2100   1.483       .  S
C1697      C1698   1.426       .  A
C1698      H1701   1.083       .  S
C1702      C2265   1.505       .  S
C1702      C1703   1.408       .  A
C1702      C1707   1.428       .  A
C1703      C1704   1.392       .  A
C1703      H1708   1.084       .  S
C1704      C2459   1.453       .  S
C1704      C1705   1.381       .  A
C1705      C1706   1.386       .  A
C1705      H1709   1.085       .  S
C1706      C2188   1.487       .  S
C1706      C1707   1.431       .  A
C1707      H1710   1.083       .  S
C1711      C2049   1.504   1_556  S
C1711      C1712   1.410   1_556  A
C1711      C1716   1.426       .  A
C1712      C1713   1.392       .  A
C1712      H1717   1.083       .  S
C1713      C2446   1.456       .  S
C1713      C1714   1.381   1_554  A
C1714      C1715   1.386       .  A
C1714      H1718   1.085       .  S
C1715      C2023   1.484       .  S
C1715      C1716   1.429       .  A
C1716      H1719   1.083       .  S
C1720      C2083   1.504       .  S
C1720      C1721   1.428       .  A
C1720      C1725   1.409       .  A
C1721      C1722   1.427       .  A
C1721      H1726   1.083       .  S
C1722      C2208   1.484       .  S
C1722      C1723   1.388       .  A
C1723      C1724   1.381       .  A
C1723      H1727   1.085       .  S
C1724      C2449   1.457       .  S
C1724      C1725   1.392       .  A
C1725      H1728   1.084       .  S
C1729      C2102   1.499       .  S
C1729      C1730   1.407   1_655  A
C1729      C1734   1.427       .  A
C1730      H1735   1.084       .  S
C1731      C2439   1.453       .  S
C1731      C1732   1.380       .  A
C1732      H1736   1.085       .  S
C1733      C1734   1.427   1_455  A
C1734      H1737   1.083       .  S
C1738      C2966   1.504       .  S
C1738      C1739   1.408       .  A
C1738      C1743   1.428       .  A
C1739      C1740   1.392       .  A
C1739      H1744   1.084       .  S
C1740      C2436   1.455       .  S
C1740      C1741   1.383       .  A
C1741      C1742   1.387       .  A
C1741      H1745   1.085       .  S
C1742      C2239   1.485       .  S
C1742      C1743   1.428       .  A
C1743      H1746   1.083       .  S
C1747      C2210   1.497       .  S
C1747      C1748   1.406       .  A
C1747      C1752   1.427       .  A
C1748      C1749   1.388       .  A
C1748      H1753   1.084       .  S
C1749      C2426   1.455       .  S
C1749      C1750   1.379       .  A
C1750      C1751   1.388       .  A
C1750      H1754   1.085       .  S
C1751      C2077   1.483       .  S
C1751      C1752   1.428       .  A
C1752      H1755   1.083       .  S
C1756      C2246   1.501       .  S
C1756      C2585   1.425       .  A
C1756      C2589   1.409       .  A
C1757      C2584   1.425       .  A
C1757      C1758   1.427       .  A
C1757      H2590   1.083       .  S
C1758      C2131   1.478       .  S
C1758      C1759   1.383       .  A
C1759      C1760   1.381       .  A
C1759      H1763   1.086       .  S
C1760      C2429   1.457       .  S
C1760      C1761   1.392       .  A
C1761      C2584   1.409       .  A
C1761      H2592   1.083       .  S
H1762      C2585   1.083       .  S
H1764      C2589   1.083       .  S
C1765      C2024   1.499       .  S
C1765      C1766   1.406       .  A
C1765      C1770   1.428       .  A
C1766      C1767   1.389       .  A
C1766      H1771   1.084       .  S
C1767      C2416   1.456       .  S
C1767      C1768   1.380       .  A
C1768      C1769   1.389       .  A
C1768      H1772   1.085       .  S
C1769      C2186   1.485       .  S
C1769      C1770   1.428       .  A
C1770      H1773   1.083       .  S
C1774      C1993   1.499       .  S
C1774      C1775   1.408       .  A
C1774      C1779   1.425       .  A
C1775      C2604   1.392   1_545  A
C1775      H1780   1.084       .  S
C1776      C2419   1.456       .  S
C1776      C2603   1.392       .  A
C1776      C1777   1.380       .  A
C1777      C2606   1.384       .  A
C1777      H1781   1.086       .  S
C1778      C2876   1.478       .  S
C1778      C2605   1.384   1_545  A
C1778      C1779   1.426       .  A
C1779      H1782   1.083       .  S
C1783      C2156   1.501       .  S
C1783      C1784   1.408       .  A
C1783      C1788   1.426       .  A
C1784      C1785   1.391       .  A
C1784      H1789   1.084       .  S
C1785      C2409   1.452       .  S
C1785      C1786   1.380       .  A
C1786      C1787   1.386       .  A
C1786      H1790   1.085       .  S
C1787      C2298   1.483       .  S
C1787      C1788   1.428       .  A
C1788      H1791   1.083       .  S
C1792      C2192   1.499       .  S
C1792      C1793   1.408       .  A
C1792      C1797   1.426       .  A
C1793      H1798   1.084       .  S
C1794      C2406   1.455       .  S
C1794      C1795   1.379       .  A
C1795      C1796   1.389       .  A
C1795      H1799   1.085       .  S
C1796      C2027   1.482       .  S
C1797      H1800   1.083       .  S
C1801      C2396   1.455       .  S
C1801      C1802   1.380       .  A
C1801      C1806   1.389       .  A
C1802      C1803   1.390       .  A
C1802      H1807   1.085       .  S
C1803      C2103   1.487       .  S
C1803      C1804   1.427       .  A
C1804      C1805   1.428       .  A
C1804      H1808   1.082       .  S
C1805      C2263   1.500       .  S
C1805      C1806   1.408       .  A
C1806      H1809   1.084       .  S
C1810      C2294   1.504       .  S
C1810      C1811   1.407       .  A
C1810      C1815   1.428       .  A
C1811      C1812   1.392       .  A
C1811      H1816   1.084       .  S
C1812      C2399   1.453       .  S
C1812      C1813   1.383       .  A
C1813      C1814   1.386       .  A
C1813      H1817   1.085       .  S
C1814      C2155   1.486       .  S
C1814      C1815   1.429       .  A
C1815      H1818   1.083       .  S
C1819      C2079   1.502       .  S
C1819      C1820   1.408       .  A
C1819      C1824   1.425   1_554  A
C1820      C1821   1.393       .  A
C1820      H1825   1.084       .  S
C1821      C2386   1.453       .  S
C1821      C1822   1.382   1_554  A
C1822      C1823   1.385       .  A
C1822      H1826   1.085       .  S
C1823      C2025   1.481       .  S
C1823      C1824   1.427       .  A
C1824      H1827   1.083       .  S
C1828      C2081   1.500       .  S
C1828      C1829   1.408       .  A
C1828      C1833   1.428       .  A
C1829      C1830   1.390       .  A
C1829      H1834   1.084       .  S
C1830      C2389   1.454       .  S
C1830      C1831   1.379       .  A
C1831      C1832   1.388       .  A
C1831      H1835   1.085       .  S
C1832      C2243   1.485       .  S
C1832      C1833   1.427       .  A
C1833      H1836   1.082       .  S
C1837      C2134   1.501       .  S
C1837      C1838   1.407       .  A
C1837      C1842   1.428       .  A
C1838      C1839   1.391       .  A
C1838      H1843   1.084       .  S
C1839      C2379   1.455       .  S
C1839      C1840   1.380       .  A
C1840      C1841   1.385       .  A
C1840      H1844   1.086       .  S
C1841      C2296   1.480       .  S
C1841      C1842   1.426       .  A
C1842      H1845   1.082       .  S
C1846      C1847   1.409       .  A
C1846      C1851   1.425       .  A
C1847      C1848   1.393       .  A
C1847      H1852   1.084       .  S
C1848      C2376   1.459       .  S
C1848      C1849   1.379       .  A
C1849      C1850   1.385       .  A
C1849      H1853   1.085       .  S
C1850      C2241   1.481       .  S
C1850      C1851   1.429       .  A
C1851      H1854   1.083       .  S
C1855      C2137   1.481       .  S
C1855      C1856   1.385       .  A
C1856      C1857   1.380       .  A
C1856      H1861   1.085       .  S
C1857      C2366   1.460       .  S
C1858      C1859   1.408       .  A
C1858      H1862   1.084       .  S
C1859      C2209   1.502       .  S
C1859      C1860   1.425       .  A
C1860      H1863   1.083       .  S
C1864      C2240   1.497       .  S
C1864      C1865   1.406       .  A
C1864      C1869   1.425       .  A
C1865      C1866   1.390       .  A
C1865      H1870   1.084       .  S
C1866      C3197   1.456       .  S
C1866      C1867   1.379       .  A
C1867      C1868   1.386       .  A
C1867      H1871   1.086       .  S
C1868      C2084   1.477       .  S
C1868      C1869   1.425       .  A
C1869      H1872   1.082       .  S
C1873      C2101   1.501       .  S
C1873      C1874   1.409       .  A
C1873      C1878   1.426       .  A
C1874      C1875   1.391       .  A
C1874      H1879   1.084       .  S
C1875      C2356   1.453       .  S
C1875      C1876   1.380       .  A
C1876      C1877   1.386       .  A
C1876      H1880   1.085       .  S
C1877      C2245   1.482       .  S
C1877      C1878   1.428       .  A
C1878      H1881   1.083       .  S
C1882      C2132   1.502       .  S
C1882      C1883   1.408       .  A
C1882      C1887   1.428       .  A
C1883      C2712   1.391   1_545  A
C1883      H1888   1.084       .  S
C1884      C2359   1.454       .  S
C1884      C2711   1.391       .  A
C1884      C1885   1.380       .  A
C1885      C2714   1.388       .  A
C1885      H1889   1.085       .  S
C1886      C3128   1.484       .  S
C1886      C2713   1.388   1_545  A
C1886      C1887   1.428       .  A
C1887      H1890   1.082       .  S
C1891      C2187   1.508       .  S
C1891      C1892   1.407       .  A
C1891      C1896   1.427       .  A
C1892      C1893   1.402       .  A
C1892      H1897   1.080       .  S
C1893      C2346   1.487       .  S
C1893      C1894   1.394       .  A
C1894      C1895   1.390       .  A
C1894      H1898   1.083       .  S
C1895      C1995   1.494       .  S
C1895      C1896   1.425       .  A
C1896      H1899   1.082       .  S
C1900      C2189   1.509       .  S
C1900      C1901   1.409       .  A
C1900      C1905   1.427       .  A
C1901      C1902   1.403       .  A
C1901      H1906   1.081       .  S
C1902      C3177   1.484       .  S
C1902      C1903   1.396       .  A
C1903      C1904   1.387       .  A
C1903      H2735   1.084       .  S
C1904      C2264   1.493       .  S
C1904      C1905   1.426       .  A
C1905      H1908   1.083       .  S
H1907      C2731   1.084   1_545  S
C1909      C2297   1.499       .  S
C1909      C1910   1.408       .  A
C1909      C1914   1.426       .  A
C1910      C1911   1.388       .  A
C1910      H1915   1.084       .  S
C1911      C2336   1.453       .  S
C1911      C1912   1.379       .  A
C1912      C1913   1.387       .  A
C1912      H1916   1.086       .  S
C1913      C2135   1.480       .  S
C1913      C1914   1.426       .  A
C1914      H1917   1.082       .  S
C1918      C2295   1.501       .  S
C1918      C1919   1.408       .  A
C1918      C1923   1.426       .  A
C1919      C1920   1.390       .  A
C1919      H1924   1.084       .  S
C1920      C2339   1.452       .  S
C1920      C1921   1.380       .  A
C1921      C1922   1.385       .  A
C1921      H1925   1.085       .  S
C1922      C2157   1.481       .  S
C1922      C1923   1.429       .  A
C1923      H1926   1.083       .  S
C1927      C2244   1.504       .  S
C1927      C1928   1.409       .  A
C1927      C1932   1.427       .  A
C1928      C1929   1.393       .  A
C1928      H1933   1.084       .  S
C1929      C2326   1.455       .  S
C1929      C1930   1.382       .  A
C1930      C1931   1.386       .  A
C1930      H1934   1.085       .  S
C1931      C2133   1.485       .  S
C1931      C1932   1.429       .  A
C1932      H1935   1.083       .  S
C1936      C2242   1.502       .  S
C1936      C1937   1.428       .  A
C1936      C1941   1.408       .  A
C1937      C1938   1.427       .  A
C1937      H1942   1.083       .  S
C1938      C2080   1.486       .  S
C1938      C1939   1.389       .  A
C1939      C1940   1.380       .  A
C1939      H1943   1.085       .  S
C1940      C1941   1.392       .  A
C1941      H1944   1.084       .  S
C1945      C2078   1.502   1_556  S
C1945      C1946   1.408   1_556  A
C1945      C1950   1.426       .  A
C1946      C1947   1.392       .  A
C1947      C1948   1.382   1_554  A
C1948      C1949   1.386       .  A
C1948      H1952   1.085       .  S
C1949      C2029   1.484       .  S
C1949      C1950   1.429       .  A
C1950      H1953   1.083       .  S
C1954      C2047   1.498       .  S
C1954      C1955   1.426       .  A
C1954      C1959   1.407       .  A
C1955      C1956   1.425       .  A
C1955      H1960   1.083       .  S
C1956      C2211   1.480       .  S
C1956      C1957   1.387       .  A
C1957      C1958   1.379       .  A
C1957      H1961   1.086       .  S
C1958      C2319   1.457       .  S
C1958      C1959   1.391       .  A
C1959      H1962   1.084       .  S
C1963      C2026   1.500       .  S
C1963      C1964   1.407       .  A
C1963      C1968   1.428       .  A
C1964      C1965   1.388       .  A
C1964      H1969   1.084       .  S
C1965      C2309   1.450       .  S
C1965      C1966   1.380       .  A
C1966      C1967   1.388       .  A
C1966      H1970   1.086       .  S
C1967      C2191   1.484       .  S
C1967      C1968   1.427       .  A
C1968      H1971   1.082       .  S
C1972      C2028   1.505       .  S
C1972      C1977   1.427       .  A
C1973      C1974   1.391       .  A
C1973      H1978   1.083       .  S
C1974      C2306   1.453       .  S
C1974      C1975   1.382       .  A
C1975      C1976   1.386       .  A
C1975      H1979   1.085       .  S
C1976      C2082   1.486       .  S
C1977      H1980   1.083       .  S
O1981      C1992   1.305       .  A
O1981     Eu2017   2.517       .  S
O1982      C1993   1.294       .  A
O1982     Eu2016   2.489       .  S
O1983      C1994   1.292       .  A
O1983     Eu1989   2.480       .  S
O1984      C1995   1.307       .  A
O1984     Eu1989   2.528       .  S
O1985      C1995   1.285       .  A
O1985     Eu2019   2.425       .  S
O1986      C1994   1.298       .  A
O1986     Eu2018   2.476       .  S
O1987      C1993   1.298       .  A
O1987     Eu1989   2.478       .  S
O1988      C1992   1.282       .  A
O1988     Eu1989   2.407       .  S
Eu1989     O1999   2.361       .  S
Eu1989     O1991   2.367       .  S
Eu1989     O1990   2.326       .  S
Eu1989     O1997   2.360       .  S
O1990     Eu2019   2.364       .  S
O1990     Eu2016   2.342       .  S
O1991     Eu2017   2.325       .  S
O1991     Eu2018   2.343       .  S
C1994      C2503   1.498   1_545  S
H1996      O1997   0.963       .  S
O1997     Eu2018   2.328       .  S
O1997     Eu2016   2.380       .  S
H1998      O1999   0.966       .  S
O1999     Eu2017   2.366       .  S
O1999     Eu2019   2.361       .  S
O2000      C2023   1.309       .  A
O2000     Eu2016   2.539       .  S
O2001     Eu2017   2.474       .  S
O2002      C2025   1.310       .  A
O2002     Eu2018   2.542       .  S
O2003      C2026   1.292       .  A
O2003     Eu2019   2.476       .  S
O2004      C2027   1.305       .  A
O2004     Eu2019   2.515       .  S
O2005      C2028   1.296       .  A
O2005     Eu2018   2.500       .  S
O2006      C2029   1.311       .  A
O2006     Eu2020   2.549       .  S
O2007      C2030   1.294       .  A
O2007     Eu2020   2.489       .  S
O2008      C2029   1.278       .  A
O2008     Eu2018   2.387       .  S
O2009      C2030   1.299       .  A
O2009     Eu2019   2.487       .  S
O2010      C2025   1.278       .  A
O2010     Eu2016   2.385       .  S
O2011      C2028   1.299       .  A
O2011     Eu2017   2.483       .  S
O2012      C2027   1.282       .  A
O2012     Eu2017   2.411       .  S
O2013      C2026   1.298       .  A
O2013     Eu2016   2.476       .  S
O2014      C2023   1.279       .  A
O2014     Eu2020   2.391       .  S
O2015     Eu2020   2.480       .  S
Eu2016     O2034   2.320       .  S
Eu2016     O2022   2.348       .  S
Eu2017     O2021   2.366       .  S
Eu2017     O2032   2.361       .  S
Eu2018     O2032   2.381       .  S
Eu2018     O2022   2.349       .  S
Eu2019     O2021   2.330       .  S
Eu2019     O2034   2.358       .  S
Eu2020     O2021   2.345       .  S
Eu2020     O2032   2.320       .  S
Eu2020     O2034   2.380       .  S
Eu2020     O2022   2.346       .  S
H2031      O2032   0.963       .  S
H2033      O2034   0.963       .  S
O2035      C2046   1.312       .  A
O2035     Eu2071   2.554       .  S
O2036      C2047   1.291       .  A
O2036     Eu2070   2.475       .  S
O2037      C2048   1.311       .  A
O2037     Eu2043   2.545       .  S
O2038      C2049   1.296   1_556  A
O2039      C2049   1.297       .  A
O2039     Eu2073   2.477       .  S
O2040      C2876   1.277       .  A
O2040     Eu2072   2.376       .  S
O2041      C2047   1.298       .  A
O2041     Eu2043   2.479   1_554  S
O2042      C2046   1.277   1_455  A
Eu2043     O2045   2.348       .  S
Eu2043     O2044   2.340   1_556  S
Eu2043     O2051   2.327   1_556  S
O2044     Eu2070   2.367       .  S
O2045     Eu2900   2.348       .  S
C2048      C2606   1.478       .  S
C2048      O2868   1.277       .  A
H2050      O2051   0.963   1_556  S
O2051     Eu2900   2.383   1_554  S
O2051     Eu2070   2.360       .  S
H2052      O2053   0.963   1_556  S
O2053     Eu2071   2.322   1_554  S
O2053     Eu2073   2.358       .  S
O2054      C2077   1.307       .  A
O2054     Eu2898   2.523   1_545  S
O2055      C2078   1.294   1_556  A
O2055     Eu2899   2.490   1_545  S
O2056      C2079   1.295   1_556  A
O2056     Eu2072   2.494       .  S
O2057      C2080   1.307       .  A
O2058      C2081   1.292       .  A
O2058     Eu2073   2.483       .  S
O2059      C2082   1.311       .  A
O2059     Eu2072   2.549       .  S
O2060      C2083   1.293       .  A
O2060     Eu2074   2.489       .  S
O2061      C2912   1.308       .  A
O2062      C2083   1.297       .  A
O2062     Eu2072   2.476   1_554  S
O2063      C2084   1.279       .  A
O2063     Eu2073   2.393       .  S
O2064      C2079   1.297       .  A
O2064     Eu2898   2.477   1_545  S
O2065      C2082   1.279       .  A
O2066      C2081   1.298       .  A
O2066     Eu2071   2.478   1_554  S
O2067      C2080   1.282       .  A
O2067     Eu2070   2.411       .  S
O2068      C2077   1.281       .  A
O2068     Eu2074   2.406       .  S
O2069      C2078   1.300       .  A
Eu2070     O2882   2.523       .  S
Eu2070     O2892   2.477       .  S
Eu2070     O2088   2.353       .  S
Eu2070     O2904   2.330       .  S
Eu2071     O2883   2.490       .  S
Eu2071     O2075   2.346   1_556  S
Eu2072     O2873   2.348   1_545  S
Eu2072     O2879   2.383   1_546  S
Eu2072     O2086   2.318   1_556  S
Eu2072     O2076   2.345   1_556  S
Eu2073     O2075   2.368       .  S
Eu2074     O2086   2.358       .  S
Eu2074     O2916   2.359   1_545  S
Eu2074     O2076   2.370       .  S
O2076     Eu2898   2.330   1_545  S
C2084      O2889   1.308       .  A
H2085      O2086   0.962   1_556  S
H2087      O2088   0.965       .  S
O2088     Eu2902   2.359       .  S
O2089      C2100   1.307       .  A
O2089     Eu2125   2.525       .  S
O2090      C2101   1.295       .  A
O2090     Eu2124   2.495       .  S
O2091      C2102   1.291       .  A
O2091     Eu2097   2.477       .  S
O2092      C2103   1.305       .  A
O2092     Eu2097   2.516       .  S
O2093      C2103   1.283       .  A
O2093     Eu2127   2.418       .  S
O2094      C2102   1.298       .  A
O2094     Eu2126   2.478       .  S
O2095      C2101   1.298       .  A
O2095     Eu2097   2.478       .  S
O2096      C2100   1.282       .  A
O2096     Eu2097   2.408       .  S
Eu2097     O2107   2.358       .  S
Eu2097     O2099   2.367       .  S
Eu2097     O2098   2.327       .  S
Eu2097     O2105   2.356       .  S
O2098     Eu2127   2.368       .  S
O2098     Eu2124   2.345       .  S
O2099     Eu2125   2.328       .  S
O2099     Eu2126   2.343       .  S
H2104      O2105   0.963       .  S
O2105     Eu2126   2.321       .  S
O2105     Eu2124   2.382       .  S
H2106      O2107   0.966       .  S
O2107     Eu2125   2.363       .  S
O2107     Eu2127   2.359       .  S
O2108      C2131   1.312       .  A
O2108     Eu2124   2.552       .  S
O2109      C2132   1.293       .  A
O2109     Eu2125   2.485       .  S
O2110      C2133   1.310       .  A
O2110     Eu2126   2.545       .  S
O2111      C2134   1.292       .  A
O2111     Eu2127   2.477       .  S
O2112      C2135   1.307       .  A
O2112     Eu2127   2.526       .  S
O2113      C2136   1.295   1_655  A
O2113     Eu2126   2.495       .  S
O2114      C2137   1.311       .  A
O2114     Eu2128   2.546       .  S
O2115      C2138   1.294       .  A
O2115     Eu2128   2.493       .  S
O2116      C2137   1.278       .  A
O2116     Eu2126   2.382       .  S
O2117      C2138   1.299       .  A
O2117     Eu2127   2.487       .  S
O2118      C2133   1.279       .  A
O2118     Eu2124   2.391       .  S
O2119      C2136   1.299       .  A
O2119     Eu2125   2.486   1_455  S
O2120      C2135   1.281       .  A
O2120     Eu2125   2.402       .  S
O2121      C2134   1.299       .  A
O2121     Eu2124   2.482       .  S
O2122      C2131   1.276       .  A
O2122     Eu2128   2.371       .  S
O2123      C2132   1.297       .  A
O2123     Eu2128   2.474       .  S
Eu2124     O2142   2.326       .  S
Eu2124     O2130   2.344       .  S
Eu2125     O2129   2.370       .  S
Eu2125     O2140   2.354       .  S
Eu2126     O2140   2.382       .  S
Eu2126     O2130   2.347       .  S
Eu2127     O2129   2.331       .  S
Eu2127     O2142   2.362       .  S
Eu2128     O2129   2.343       .  S
Eu2128     O2140   2.315       .  S
Eu2128     O2142   2.379       .  S
Eu2128     O2130   2.347       .  S
C2138      C2566   1.504   1_545  S
H2139      O2140   0.962       .  S
H2141      O2142   0.963       .  S
O2143      C2154   1.290       .  A
O2143     Eu2179   2.466       .  S
O2144      C2155   1.311       .  A
O2144     Eu2178   2.550       .  S
O2145      C2156   1.294       .  A
O2145     Eu2151   2.489       .  S
O2146      C2157   1.310       .  A
O2146     Eu2151   2.542       .  S
O2147      C2157   1.277       .  A
O2147     Eu2181   2.381       .  S
O2148      C2156   1.299       .  A
O2148     Eu2180   2.482       .  S
O2149      C2155   1.279       .  A
O2149     Eu2151   2.390       .  S
O2150      C2154   1.296       .  A
O2150     Eu2151   2.469       .  S
Eu2151     O2161   2.334       .  S
Eu2151     O2153   2.341       .  S
Eu2151     O2152   2.342       .  S
Eu2151     O2159   2.377       .  S
O2152     Eu2181   2.352       .  S
O2152     Eu2178   2.350       .  S
O2153     Eu2179   2.367       .  S
O2153     Eu2180   2.322       .  S
H2158      O2159   0.963       .  S
O2159     Eu2180   2.357       .  S
O2159     Eu2178   2.316       .  S
H2160      O2161   0.963       .  S
O2161     Eu2179   2.363       .  S
O2161     Eu2181   2.377       .  S
O2162      C2185   1.292       .  A
O2162     Eu2178   2.472       .  S
O2163      C2186   1.307       .  A
O2163     Eu2179   2.528       .  S
O2164      C2187   1.293       .  A
O2164     Eu2180   2.484       .  S
O2165      C2188   1.312       .  A
O2165     Eu2181   2.551       .  S
O2166      C2189   1.295       .  A
O2166     Eu2181   2.492       .  S
O2167      C2190   1.308       .  A
O2167     Eu2180   2.530       .  S
O2168      C2191   1.308       .  A
O2168     Eu2182   2.533       .  S
O2169      C2192   1.293       .  A
O2169     Eu2182   2.483       .  S
O2170      C2191   1.281       .  A
O2170     Eu2180   2.402       .  S
O2171      C2192   1.298       .  A
O2171     Eu2181   2.476       .  S
O2172      C2187   1.302       .  A
O2172     Eu2178   2.501       .  S
O2173      C2190   1.282       .  A
O2173     Eu2179   2.403       .  S
O2174      C2189   1.302       .  A
O2174     Eu2179   2.505       .  S
O2175      C2188   1.280       .  A
O2175     Eu2178   2.392       .  S
O2176      C2185   1.298       .  A
O2176     Eu2182   2.478       .  S
O2177      C2186   1.281       .  A
O2177     Eu2182   2.407       .  S
Eu2178     O2196   2.383       .  S
Eu2178     O2184   2.353       .  S
Eu2179     O2183   2.319       .  S
Eu2179     O2194   2.359       .  S
Eu2180     O2194   2.360       .  S
Eu2180     O2184   2.373       .  S
Eu2181     O2183   2.346       .  S
Eu2181     O2196   2.305       .  S
Eu2182     O2183   2.369       .  S
Eu2182     O2194   2.349       .  S
Eu2182     O2196   2.352       .  S
Eu2182     O2184   2.339       .  S
H2193      O2194   0.965       .  S
H2195      O2196   0.961       .  S
O2197      C2208   1.308       .  A
O2197     Eu2233   2.530       .  S
O2198      C2209   1.295       .  A
O2198     Eu2232   2.495       .  S
O2199      C2210   1.291       .  A
O2199     Eu2205   2.475       .  S
O2200      C2211   1.308       .  A
O2200     Eu2205   2.529       .  S
O2201      C2211   1.280       .  A
O2201     Eu2235   2.400       .  S
O2202      C2210   1.299       .  A
O2202     Eu2234   2.479       .  S
O2203      C2209   1.300       .  A
O2203     Eu2205   2.488       .  S
O2204      C2208   1.282       .  A
O2204     Eu2205   2.408       .  S
Eu2205     O2215   2.358       .  S
Eu2205     O2207   2.367       .  S
Eu2205     O2206   2.328       .  S
Eu2205     O2213   2.358       .  S
O2206     Eu2235   2.369       .  S
O2206     Eu2232   2.347       .  S
O2207     Eu2233   2.322       .  S
O2207     Eu2234   2.343       .  S
H2212      O2213   0.962       .  S
O2213     Eu2234   2.318       .  S
O2213     Eu2232   2.381       .  S
H2214      O2215   0.966       .  S
O2215     Eu2233   2.358       .  S
O2215     Eu2235   2.360       .  S
O2216      C2239   1.311       .  A
O2216     Eu2232   2.547       .  S
O2217      C2240   1.291       .  A
O2217     Eu2233   2.475       .  S
O2218      C2241   1.310       .  A
O2218     Eu2234   2.542       .  S
O2219      C2242   1.293       .  A
O2219     Eu2235   2.485       .  S
O2220      C2243   1.306       .  A
O2220     Eu2235   2.523       .  S
O2221      C2244   1.294       .  A
O2221     Eu2234   2.490       .  S
O2222      C2245   1.308       .  A
O2222     Eu2236   2.533       .  S
O2223      C2246   1.294       .  A
O2223     Eu2236   2.492       .  S
O2224      C2245   1.279       .  A
O2224     Eu2234   2.392       .  S
O2225      C2246   1.297       .  A
O2225     Eu2235   2.477       .  S
O2226      C2241   1.278       .  A
O2226     Eu2232   2.383       .  S
O2227      C2244   1.299       .  A
O2227     Eu2233   2.488       .  S
O2228      C2243   1.282       .  A
O2228     Eu2233   2.409       .  S
O2229      C2242   1.298       .  A
O2229     Eu2232   2.481       .  S
O2230      C2239   1.279       .  A
O2230     Eu2236   2.393       .  S
O2231      C2240   1.297       .  A
O2231     Eu2236   2.474       .  S
Eu2232     O2250   2.324       .  S
Eu2232     O2238   2.349       .  S
Eu2233     O2237   2.371       .  S
Eu2233     O2248   2.359       .  S
Eu2234     O2248   2.377       .  S
Eu2234     O2238   2.347       .  S
Eu2235     O2237   2.326       .  S
Eu2235     O2250   2.358       .  S
Eu2236     O2237   2.342       .  S
Eu2236     O2248   2.328       .  S
Eu2236     O2250   2.379       .  S
Eu2236     O2238   2.346       .  S
H2247      O2248   0.963       .  S
H2249      O2250   0.963       .  S
O2251      C2262   1.305       .  A
O2252      C2263   1.292       .  A
O2252     Eu3114   2.483   1_545  S
O2253      C3092   1.310       .  A
O2253     Eu2259   2.546   1_565  S
O2254      C2265   1.294       .  A
O2254     Eu2259   2.491       .  S
O2255      C2265   1.301       .  A
O2255     Eu2289   2.494       .  S
O2256      C2264   1.282       .  A
O2256     Eu2288   2.411       .  S
O2257      C2263   1.298       .  A
O2257     Eu2259   2.479       .  S
O2258      C2262   1.281       .  A
O2258     Eu2259   2.402       .  S
Eu2259     O2269   2.379       .  S
Eu2259     O3089   2.355   1_545  S
Eu2259     O2260   2.350       .  S
Eu2259     O3095   2.324   1_545  S
O2260     Eu2289   2.327       .  S
O2260     Eu3114   2.369   1_545  S
O2261     Eu3087   2.355       .  S
O2261     Eu2288   2.353       .  S
C2264      O3081   1.310       .  A
H2266      O2267   0.963       .  S
O2267     Eu3087   2.324       .  S
O2267     Eu2288   2.375       .  S
O2267     Eu2286   2.354       .  S
H2268      O2269   0.962       .  S
O2269     Eu2289   2.354       .  S
O2270      C2293   1.306       .  A
O2270     Eu2286   2.524       .  S
O2271      C2294   1.293       .  A
O2271     Eu2287   2.485       .  S
O2272      C2295   1.294       .  A
O2272     Eu2288   2.491       .  S
O2273      C2296   1.310       .  A
O2273     Eu2289   2.541       .  S
O2274      C2297   1.293       .  A
O2275      C2298   1.308       .  A
O2276      C2299   1.292       .  A
O2276     Eu2290   2.477       .  S
O2277      C2300   1.308       .  A
O2277     Eu2290   2.533       .  S
O2278      C2299   1.299       .  A
O2279      C3128   1.281   1_455  A
O2280      C2295   1.298       .  A
O2280     Eu2286   2.478       .  S
O2281      C2298   1.279       .  A
O2281     Eu2287   2.395       .  S
O2282      C2297   1.296       .  A
O2282     Eu3115   2.469   1_545  S
O2283      C2296   1.279       .  A
O2283     Eu3114   2.393   1_545  S
O2284      C2293   1.282       .  A
O2285      C2294   1.300       .  A
O2285     Eu2290   2.490       .  S
Eu2286     O3080   2.483       .  S
Eu2286     O3111   2.393       .  S
Eu2286     O3088   2.369       .  S
Eu2286     O2304   2.358       .  S
Eu2286     O2292   2.324       .  S
Eu2287     O3110   2.469       .  S
Eu2287     O2291   2.342       .  S
Eu2287     O2302   2.372       .  S
Eu2288     O2292   2.347       .  S
Eu2289     O3132   2.358   1_545  S
Eu2290     O2291   2.323       .  S
Eu2290     O2302   2.361       .  S
C2300      C2714   1.484       .  S
C2300      O3107   1.281   1_655  A
H2301      O2302   0.963       .  S
H2303      O2304   0.965       .  S
O2304     Eu3117   2.358       .  S
C2305      C2306   1.409       .  A
C2305      C2310   1.396       .  A
C2305     Br2312   1.926       .  S
C2306      C2307   1.402       .  A
C2307      C2308   1.397       .  A
C2307     Br2314   1.929       .  S
C2308      C2309   1.410       .  A
C2308     Br2313   1.933       .  S
C2309      C2310   1.401       .  A
C2310     Br2311   1.931       .  S
C2315      C2316   1.402       .  A
C2315      C2320   1.397       .  A
C2315     Br2322   1.933       .  S
C2316      C2317   1.414   1_554  A
C2317      C2318   1.396   1_556  A
C2317     Br2324   1.929       .  S
C2318      C2319   1.401       .  A
C2318     Br2323   1.934   1_554  S
C2319      C2320   1.415       .  A
C2320     Br2321   1.933       .  S
C2325      C2326   1.405       .  A
C2325      C2330   1.397       .  A
C2325     Br2332   1.932       .  S
C2326      C2327   1.410       .  A
C2327      C2328   1.397       .  A
C2327     Br2334   1.932       .  S
C2328      C2329   1.405       .  A
C2328     Br2333   1.932       .  S
C2329      C2330   1.409       .  A
C2335      C3164   1.411       .  A
C2335      C2340   1.396       .  A
C2335     Br2342   1.933       .  S
C2336      C3163   1.411   1_545  A
C2336      C2337   1.401       .  A
C2337      C3166   1.396   1_545  A
C2337     Br2344   1.930       .  S
C2338      C3165   1.396       .  A
C2338      C2339   1.412       .  A
C2338     Br2343   1.934       .  S
C2339      C2340   1.401       .  A
C2340     Br2341   1.931       .  S
C2345      C2346   1.406       .  A
C2345      C2350   1.399       .  A
C2345     Br2352   1.886       .  S
C2346      C2347   1.403       .  A
C2347      C2348   1.401       .  A
C2347     Br2354   1.932       .  S
C2348      C2349   1.408       .  A
C2348     Br2353   1.891   1_545  S
C2349      C2730   1.484   1_545  S
C2349      C2350   1.403       .  A
C2350     Br2351   1.936       .  S
C2355      C2356   1.404       .  A
C2355      C2360   1.396       .  A
C2355     Br2362   1.932       .  S
C2356      C2357   1.409       .  A
C2357      C2358   1.398       .  A
C2357     Br2364   1.932       .  S
C2358      C2359   1.404       .  A
C2358     Br2363   1.931       .  S
C2359      C2360   1.409       .  A
C2360     Br2361   1.932       .  S
C2365      C2366   1.416       .  A
C2365      C2370   1.396       .  A
C2365     Br2372   1.926       .  S
C2366      C2367   1.402       .  A
C2367      C2368   1.395       .  A
C2367     Br2374   1.933       .  S
C2368      C2369   1.414       .  A
C2368     Br2373   1.933       .  S
C2369      C2694   1.456   1_545  S
C2369      C2370   1.400       .  A
C2370     Br2371   1.935       .  S
C2375      C2376   1.416       .  A
C2375      C2380   1.396       .  A
C2375     Br2382   1.925       .  S
C2376      C2377   1.402       .  A
C2377      C2378   1.395       .  A
C2377     Br2384   1.933       .  S
C2378      C2379   1.413       .  A
C2378     Br2383   1.933       .  S
C2379      C2380   1.399       .  A
C2380     Br2381   1.934       .  S
C2385      C2386   1.404       .  A
C2385      C2390   1.397       .  A
C2385     Br2392   1.931       .  S
C2386      C3215   1.410   1_545  A
C2387      C3214   1.410       .  A
C2387      C2388   1.396       .  A
C2387     Br2394   1.933   1_554  S
C2388      C2389   1.404       .  A
C2388     Br2393   1.933       .  S
C2389      C3218   1.408       .  A
C2390      C3217   1.408   1_545  A
C2390     Br2391   1.928       .  S
C2395      C2396   1.409       .  A
C2395      C2400   1.398       .  A
C2395     Br2402   1.928       .  S
C2396      C2397   1.404       .  A
C2397      C2398   1.396       .  A
C2397     Br2404   1.933       .  S
C2398      C2399   1.410       .  A
C2398     Br2403   1.934       .  S
C2399      C2400   1.403       .  A
C2400     Br2401   1.930       .  S
C2405      C2406   1.405       .  A
C2405      C2410   1.396       .  A
C2405     Br2412   1.931       .  S
C2406      C2407   1.409       .  A
C2407      C2408   1.396       .  A
C2408      C2409   1.403       .  A
C2409      C2410   1.409       .  A
C2410     Br2411   1.932       .  S
C2415      C2416   1.413       .  A
C2415      C2420   1.396       .  A
C2415     Br2422   1.931       .  S
C2416      C2417   1.401       .  A
C2417      C2418   1.395       .  A
C2417     Br2424   1.933       .  S
C2418      C2419   1.415       .  A
C2418     Br2423   1.937       .  S
C2419      C2420   1.401       .  A
C2420     Br2421   1.932       .  S
C2425      C2426   1.401       .  A
C2425      C2430   1.394       .  A
C2425     Br2432   1.935       .  S
C2426      C2427   1.413       .  A
C2427      C2428   1.397       .  A
C2427     Br2434   1.931       .  S
C2428      C2429   1.402       .  A
C2428     Br2433   1.932       .  S
C2429      C2430   1.415       .  A
C2430     Br2431   1.934       .  S
C2435      C2436   1.411       .  A
C2435      C2440   1.395       .  A
C2435     Br2442   1.931       .  S
C2436      C2437   1.402       .  A
C2437      C2438   1.398       .  A
C2437     Br2444   1.929       .  S
C2438      C2439   1.411       .  A
C2438     Br2443   1.932       .  S
C2439      C2440   1.401       .  A
C2440     Br2441   1.931       .  S
C2445      C2446   1.404       .  A
C2445      C2450   1.396       .  A
C2445     Br2452   1.932       .  S
C2446      C2447   1.409       .  A
C2447      C2448   1.399       .  A
C2447     Br2454   1.931   1_554  S
C2448      C2449   1.405       .  A
C2448     Br2453   1.931       .  S
C2449      C2450   1.410       .  A
C2450     Br2451   1.930       .  S
C2455      C2456   1.409       .  A
C2455      C2460   1.395       .  A
C2455     Br2462   1.932       .  S
C2457     Br2464   1.931       .  S
C2458      C2459   1.409       .  A
C2459      C2460   1.404       .  A
C2460     Br2461   1.931       .  S
C2465      C2466   1.413       .  A
C2465      C2470   1.397       .  A
C2465     Br2472   1.934       .  S
C2466      C2467   1.402       .  A
C2467      C2468   1.394       .  A
C2467     Br2474   1.933       .  S
C2468      C2469   1.413       .  A
C2468     Br2473   1.936       .  S
C2469      C2470   1.402       .  A
C2470     Br2471   1.931       .  S
C2475      C2476   1.402       .  A
C2475      C2480   1.389       .  A
C2475     Br2482   1.936       .  S
C2476      C2477   1.407       .  A
C2477      C2478   1.394       .  A
C2478      C2479   1.404       .  A
C2478     Br2483   1.930       .  S
C2479      C2480   1.410       .  A
C2480     Br3309   1.934   1_545  S
Br2481     C3308   1.934       .  S
C2485      C2982   1.493       .  S
C2486      C2487   1.388       .  A
C2487      C3307   1.444       .  S
C2487      C2488   1.381       .  A
C2488      C2489   1.386       .  A
C2488      H2492   1.086       .  S
C2489      C2820   1.477       .  S
C2489      C2490   1.422       .  A
C2490      H2493   1.082       .  S
C2494      C3013   1.492       .  S
C2494      C2495   1.400       .  A
C2494      C2499   1.427       .  A
C2495      C2496   1.386       .  A
C2495      H2500   1.084       .  S
C2496      C2497   1.378       .  A
C2497      C2498   1.384       .  A
C2497      H2501   1.085       .  S
C2498      C3090   1.479       .  S
C2498      C2499   1.424       .  A
C2499      H2502   1.082       .  S
C2503      C2504   1.426       .  A
C2503      C2508   1.407       .  A
C2504      C2505   1.427       .  A
C2504      H2509   1.082       .  S
C2505      C3018   1.483       .  S
C2505      C2506   1.388       .  A
C2506      C2507   1.379       .  A
C2506      H2510   1.085       .  S
C2507      C3294   1.454       .  S
C2507      C2508   1.389       .  A
C2508      H2511   1.084       .  S
C2512      C2858   1.502       .  S
C2512      C2513   1.427       .  A
C2512      C2517   1.408       .  A
C2513      C2514   1.429       .  A
C2513      H2518   1.083       .  S
C2514      C2874   1.482       .  S
C2514      C2515   1.384       .  A
C2515      C2516   1.381       .  A
C2515      H2519   1.086       .  S
C2516      C3297   1.454       .  S
C2516      C2517   1.391       .  A
C2517      H2520   1.084       .  S
C2521      C3127   1.500       .  S
C2521      C2522   1.407       .  A
C2521      C2526   1.428       .  A
C2522      C2523   1.390       .  A
C2523      C2524   1.380       .  A
C2524      C2525   1.388       .  A
C2524      H2528   1.085       .  S
C2525      C2928   1.483       .  S
C2525      C2526   1.426       .  A
C2526      H2529   1.083       .  S
C2530      C3093   1.505       .  S
C2530      C2531   1.408       .  A
C2530      C2535   1.428       .  A
C2531      C2532   1.392       .  A
C2531      H2536   1.084       .  S
C2532      C3287   1.453       .  S
C2532      C2533   1.381       .  A
C2533      C2534   1.386       .  A
C2533      H2537   1.085       .  S
C2534      C3016   1.487       .  S
C2534      C2535   1.431       .  A
C2535      H2538   1.083       .  S
C2539      C2877   1.504   1_556  S
C2539      C2540   1.410   1_556  A
C2539      C2544   1.426       .  A
C2540      C2541   1.392       .  A
C2540      H2545   1.083       .  S
C2541      C3274   1.456       .  S
C2541      C2542   1.381   1_554  A
C2542      C2543   1.386       .  A
C2542      H2546   1.085       .  S
C2543      C2851   1.484       .  S
C2543      C2544   1.429       .  A
C2544      H2547   1.083       .  S
C2548      C2911   1.504       .  S
C2548      C2549   1.428       .  A
C2548      C2553   1.409       .  A
C2549      C2550   1.427       .  A
C2549      H2554   1.083       .  S
C2550      C3036   1.484       .  S
C2550      C2551   1.388       .  A
C2551      C2552   1.381       .  A
C2551      H2555   1.085       .  S
C2552      C3277   1.457       .  S
C2552      C2553   1.392       .  A
C2553      H2556   1.084       .  S
C2557      C2930   1.499       .  S
C2557      C2558   1.407   1_655  A
C2557      C2562   1.427       .  A
C2558      H2563   1.084       .  S
C2559      C3267   1.453       .  S
C2559      C2560   1.380       .  A
C2560      H2564   1.085       .  S
C2561      C2562   1.427   1_455  A
C2562      H2565   1.083       .  S
C2566      C2567   1.408       .  A
C2566      C2571   1.428       .  A
C2567      C2568   1.392       .  A
C2567      H2572   1.084       .  S
C2568      C3264   1.455       .  S
C2568      C2569   1.383       .  A
C2569      C2570   1.387       .  A
C2569      H2573   1.085       .  S
C2570      C3067   1.485       .  S
C2570      C2571   1.428       .  A
C2571      H2574   1.083       .  S
C2575      C3038   1.497       .  S
C2575      C2576   1.406       .  A
C2575      C2580   1.427       .  A
C2576      C2577   1.388       .  A
C2576      H2581   1.084       .  S
C2577      C3254   1.455       .  S
C2577      C2578   1.379       .  A
C2578      C2579   1.388       .  A
C2578      H2582   1.085       .  S
C2579      C2905   1.483       .  S
C2579      C2580   1.428       .  A
C2580      H2583   1.083       .  S
C2584      C3074   1.501   1_545  S
C2585      C2586   1.427       .  A
C2586      C2959   1.478       .  S
C2586      C2587   1.383       .  A
C2587      C2588   1.381       .  A
C2587      H2591   1.086       .  S
C2588      C3257   1.457       .  S
C2588      C2589   1.392       .  A
C2593      C2852   1.499       .  S
C2593      C2594   1.406       .  A
C2593      C2598   1.428       .  A
C2594      C2595   1.389       .  A
C2594      H2599   1.084       .  S
C2595      C3244   1.456       .  S
C2595      C2596   1.380       .  A
C2596      C2597   1.389       .  A
C2596      H2600   1.085       .  S
C2597      C3014   1.485       .  S
C2597      C2598   1.428       .  A
C2598      H2601   1.083       .  S
C2602      C2821   1.499       .  S
C2602      C2603   1.408       .  A
C2602      C2607   1.425       .  A
C2603      H2608   1.084       .  S
C2604      C3247   1.456       .  S
C2604      C2605   1.380       .  A
C2605      H2609   1.086       .  S
C2606      C2607   1.426       .  A
C2607      H2610   1.083       .  S
C2611      C2984   1.501       .  S
C2611      C2612   1.408       .  A
C2611      C2616   1.426       .  A
C2612      C2613   1.391       .  A
C2612      H2617   1.084       .  S
C2613      C3237   1.452       .  S
C2613      C2614   1.380       .  A
C2614      C2615   1.386       .  A
C2614      H2618   1.085       .  S
C2615      C3126   1.483       .  S
C2615      C2616   1.428       .  A
C2616      H2619   1.083       .  S
C2620      C3020   1.499       .  S
C2620      C2621   1.408       .  A
C2620      C2625   1.426       .  A
C2621      H2626   1.084       .  S
C2622      C3234   1.455       .  S
C2622      C2623   1.379       .  A
C2623      C2624   1.389       .  A
C2623      H2627   1.085       .  S
C2624      C2855   1.482       .  S
C2625      H2628   1.083       .  S
C2629      C3224   1.455       .  S
C2629      C2630   1.380       .  A
C2629      C2634   1.389       .  A
C2630      C2631   1.390       .  A
C2630      H2635   1.085       .  S
C2631      C2931   1.487       .  S
C2631      C2632   1.427       .  A
C2632      C2633   1.428       .  A
C2632      H2636   1.082       .  S
C2633      C3091   1.500       .  S
C2633      C2634   1.408       .  A
C2634      H2637   1.084       .  S
C2638      C3122   1.504       .  S
C2638      C2639   1.407       .  A
C2638      C2643   1.428       .  A
C2639      C2640   1.392       .  A
C2639      H2644   1.084       .  S
C2640      C3227   1.453       .  S
C2640      C2641   1.383       .  A
C2641      C2642   1.386       .  A
C2641      H2645   1.085       .  S
C2642      C2983   1.486       .  S
C2642      C2643   1.429       .  A
C2643      H2646   1.083       .  S
C2647      C2907   1.502       .  S
C2647      C2648   1.408       .  A
C2647      C2652   1.425   1_554  A
C2648      C2649   1.393       .  A
C2648      H2653   1.084       .  S
C2649      C3214   1.453       .  S
C2649      C2650   1.382   1_554  A
C2650      C2651   1.385       .  A
C2650      H2654   1.085       .  S
C2651      C2853   1.481       .  S
C2651      C2652   1.427       .  A
C2652      H2655   1.083       .  S
C2656      C2909   1.500       .  S
C2656      C2657   1.408       .  A
C2656      C2661   1.428       .  A
C2657      C2658   1.390       .  A
C2657      H2662   1.084       .  S
C2658      C3217   1.454       .  S
C2658      C2659   1.379       .  A
C2659      C2660   1.388       .  A
C2659      H2663   1.085       .  S
C2660      C3071   1.485       .  S
C2660      C2661   1.427       .  A
C2661      H2664   1.082       .  S
C2665      C2962   1.501       .  S
C2665      C2666   1.407       .  A
C2665      C2670   1.428       .  A
C2666      C2667   1.391       .  A
C2666      H2671   1.084       .  S
C2667      C3207   1.455       .  S
C2667      C2668   1.380       .  A
C2668      C2669   1.385       .  A
C2668      H2672   1.086       .  S
C2669      C3124   1.480       .  S
C2669      C2670   1.426       .  A
C2670      H2673   1.082       .  S
C2674      C2675   1.409       .  A
C2674      C2679   1.425       .  A
C2675      C2676   1.393       .  A
C2675      H2680   1.084       .  S
C2676      C3204   1.459       .  S
C2676      C2677   1.379       .  A
C2677      C2678   1.385       .  A
C2677      H2681   1.085       .  S
C2678      C3069   1.481       .  S
C2678      C2679   1.429       .  A
C2679      H2682   1.083       .  S
C2683      C2965   1.481       .  S
C2683      C2684   1.385       .  A
C2684      C2685   1.380       .  A
C2684      H2689   1.085       .  S
C2685      C3194   1.460       .  S
C2686      C2687   1.408       .  A
C2686      H2690   1.084       .  S
C2687      C3037   1.502       .  S
C2687      C2688   1.425       .  A
C2688      H2691   1.083       .  S
C2692      C3068   1.497       .  S
C2692      C2693   1.406       .  A
C2692      C2697   1.425       .  A
C2693      C2694   1.390       .  A
C2693      H2698   1.084       .  S
C2694      C2695   1.379       .  A
C2695      C2696   1.386       .  A
C2695      H2699   1.086   1_565  S
C2696      C2912   1.477       .  S
C2696      C2697   1.425       .  A
C2697      H2700   1.082       .  S
C2701      C2929   1.501       .  S
C2701      C2702   1.409       .  A
C2701      C2706   1.426       .  A
C2702      C2703   1.391       .  A
C2702      H2707   1.084       .  S
C2703      C3184   1.453       .  S
C2703      C2704   1.380       .  A
C2704      C2705   1.386       .  A
C2704      H2708   1.085       .  S
C2705      C3073   1.482       .  S
C2705      C2706   1.428       .  A
C2706      H2709   1.083       .  S
C2710      C2960   1.502       .  S
C2710      C2711   1.408       .  A
C2710      C2715   1.428       .  A
C2711      H2716   1.084       .  S
C2712      C3187   1.454       .  S
C2712      C2713   1.380       .  A
C2713      H2717   1.085       .  S
C2714      C2715   1.428       .  A
C2715      H2718   1.082       .  S
C2719      C3015   1.508       .  S
C2719      C2720   1.407       .  A
C2719      C2724   1.427       .  A
C2720      C2721   1.402       .  A
C2720      H2725   1.080       .  S
C2721      C3174   1.487       .  S
C2721      C2722   1.394       .  A
C2722      C2723   1.390       .  A
C2722      H2726   1.083       .  S
C2723      C2823   1.494       .  S
C2723      C2724   1.425       .  A
C2724      H2727   1.082       .  S
C2728      C3017   1.509       .  S
C2728      C2729   1.409       .  A
C2728      C2733   1.427       .  A
C2729      C2730   1.403       .  A
C2729      H2734   1.081       .  S
C2730      C2731   1.396       .  A
C2731      C2732   1.387       .  A
C2732      C3092   1.493       .  S
C2732      C2733   1.426       .  A
C2733      H2736   1.083       .  S
C2737      C3125   1.499       .  S
C2737      C2738   1.408       .  A
C2737      C2742   1.426       .  A
C2738      C2739   1.388       .  A
C2738      H2743   1.084       .  S
C2739      C3164   1.453       .  S
C2739      C2740   1.379       .  A
C2740      C2741   1.387       .  A
C2740      H2744   1.086       .  S
C2741      C2963   1.480       .  S
C2741      C2742   1.426       .  A
C2742      H2745   1.082       .  S
C2746      C3123   1.501       .  S
C2746      C2747   1.408       .  A
C2746      C2751   1.426       .  A
C2747      C2748   1.390       .  A
C2747      H2752   1.084       .  S
C2748      C3167   1.452       .  S
C2748      C2749   1.380       .  A
C2749      C2750   1.385       .  A
C2749      H2753   1.085       .  S
C2750      C2985   1.481       .  S
C2750      C2751   1.429       .  A
C2751      H2754   1.083       .  S
C2755      C3072   1.504       .  S
C2755      C2756   1.409       .  A
C2755      C2760   1.427       .  A
C2756      C2757   1.393       .  A
C2756      H2761   1.084       .  S
C2757      C3154   1.455       .  S
C2757      C2758   1.382       .  A
C2758      C2759   1.386       .  A
C2758      H2762   1.085       .  S
C2759      C2961   1.485       .  S
C2759      C2760   1.429       .  A
C2760      H2763   1.083       .  S
C2764      C3070   1.502       .  S
C2764      C2765   1.428       .  A
C2764      C2769   1.408       .  A
C2765      C2766   1.427       .  A
C2765      H2770   1.083       .  S
C2766      C2908   1.486       .  S
C2766      C2767   1.389       .  A
C2767      C2768   1.380       .  A
C2767      H2771   1.085       .  S
C2768      C2769   1.392       .  A
C2769      H2772   1.084       .  S
C2773      C2906   1.502   1_556  S
C2773      C2774   1.408   1_556  A
C2773      C2778   1.426       .  A
C2774      C2775   1.392       .  A
C2775      C2776   1.382   1_554  A
C2776      C2777   1.386       .  A
C2776      H2780   1.085       .  S
C2777      C2857   1.484       .  S
C2777      C2778   1.429       .  A
C2778      H2781   1.083       .  S
C2782      C2875   1.498       .  S
C2782      C2783   1.426       .  A
C2782      C2787   1.407       .  A
C2783      C2784   1.425       .  A
C2783      H2788   1.083       .  S
C2784      C3039   1.480       .  S
C2784      C2785   1.387       .  A
C2785      C2786   1.379       .  A
C2785      H2789   1.086       .  S
C2786      C3147   1.457       .  S
C2786      C2787   1.391       .  A
C2787      H2790   1.084       .  S
C2791      C2854   1.500       .  S
C2791      C2792   1.407       .  A
C2791      C2796   1.428       .  A
C2792      C2793   1.388       .  A
C2792      H2797   1.084       .  S
C2793      C3137   1.450       .  S
C2793      C2794   1.380       .  A
C2794      C2795   1.388       .  A
C2794      H2798   1.086       .  S
C2795      C3019   1.484       .  S
C2795      C2796   1.427       .  A
C2796      H2799   1.082       .  S
C2800      C2856   1.505       .  S
C2800      C2805   1.427       .  A
C2801      C2802   1.391       .  A
C2801      H2806   1.083       .  S
C2802      C3134   1.453       .  S
C2802      C2803   1.382       .  A
C2803      C2804   1.386       .  A
C2803      H2807   1.085       .  S
C2804      C2910   1.486       .  S
C2805      H2808   1.083       .  S
O2809      C2820   1.305       .  A
O2809     Eu2845   2.517       .  S
O2810      C2821   1.294       .  A
O2810     Eu2844   2.489       .  S
O2811      C2822   1.292       .  A
O2811     Eu2817   2.480       .  S
O2812      C2823   1.307       .  A
O2812     Eu2817   2.528       .  S
O2813      C2823   1.285       .  A
O2813     Eu2847   2.425       .  S
O2814      C2822   1.298       .  A
O2814     Eu2846   2.476       .  S
O2815      C2821   1.298       .  A
O2815     Eu2817   2.478       .  S
O2816      C2820   1.282       .  A
O2816     Eu2817   2.407       .  S
Eu2817     O2827   2.361       .  S
Eu2817     O2819   2.367       .  S
Eu2817     O2818   2.326       .  S
Eu2817     O2825   2.360       .  S
O2818     Eu2847   2.364       .  S
O2818     Eu2844   2.342       .  S
O2819     Eu2845   2.325       .  S
O2819     Eu2846   2.343       .  S
H2824      O2825   0.963       .  S
O2825     Eu2846   2.328       .  S
O2825     Eu2844   2.380       .  S
H2826      O2827   0.966       .  S
O2827     Eu2845   2.366       .  S
O2827     Eu2847   2.361       .  S
O2828      C2851   1.309       .  A
O2828     Eu2844   2.539       .  S
O2829     Eu2845   2.474       .  S
O2830      C2853   1.310       .  A
O2830     Eu2846   2.542       .  S
O2831      C2854   1.292       .  A
O2831     Eu2847   2.476       .  S
O2832      C2855   1.305       .  A
O2832     Eu2847   2.515       .  S
O2833      C2856   1.296       .  A
O2833     Eu2846   2.500       .  S
O2834      C2857   1.311       .  A
O2834     Eu2848   2.549       .  S
O2835      C2858   1.294       .  A
O2835     Eu2848   2.489       .  S
O2836      C2857   1.278       .  A
O2836     Eu2846   2.387       .  S
O2837      C2858   1.299       .  A
O2837     Eu2847   2.487       .  S
O2838      C2853   1.278       .  A
O2838     Eu2844   2.385       .  S
O2839      C2856   1.299       .  A
O2839     Eu2845   2.483       .  S
O2840      C2855   1.282       .  A
O2840     Eu2845   2.411       .  S
O2841      C2854   1.298       .  A
O2841     Eu2844   2.476       .  S
O2842      C2851   1.279       .  A
O2842     Eu2848   2.391       .  S
O2843     Eu2848   2.480       .  S
Eu2844     O2862   2.320       .  S
Eu2844     O2850   2.348       .  S
Eu2845     O2849   2.366       .  S
Eu2845     O2860   2.361       .  S
Eu2846     O2860   2.381       .  S
Eu2846     O2850   2.349       .  S
Eu2847     O2849   2.330       .  S
Eu2847     O2862   2.358       .  S
Eu2848     O2849   2.345       .  S
Eu2848     O2860   2.320       .  S
Eu2848     O2862   2.380       .  S
Eu2848     O2850   2.346       .  S
H2859      O2860   0.963       .  S
H2861      O2862   0.963       .  S
O2863      C2874   1.312       .  A
O2863     Eu2899   2.554       .  S
O2864      C2875   1.291       .  A
O2864     Eu2898   2.475       .  S
O2865      C2876   1.311   1_565  A
O2865     Eu2871   2.545       .  S
O2866      C2877   1.296   1_556  A
O2867      C2877   1.297       .  A
O2867     Eu2901   2.477       .  S
O2868     Eu2900   2.376       .  S
O2869      C2875   1.298       .  A
O2869     Eu2871   2.479   1_554  S
O2870      C2874   1.277   1_455  A
Eu2871     O2873   2.348       .  S
Eu2871     O2872   2.340   1_556  S
Eu2871     O2879   2.327   1_556  S
O2872     Eu2898   2.367       .  S
H2878      O2879   0.963   1_556  S
O2879     Eu2898   2.360       .  S
H2880      O2881   0.963   1_556  S
O2881     Eu2899   2.322   1_554  S
O2881     Eu2901   2.358       .  S
O2882      C2905   1.307       .  A
O2883      C2906   1.294   1_556  A
O2884      C2907   1.295   1_556  A
O2884     Eu2900   2.494       .  S
O2885      C2908   1.307       .  A
O2886      C2909   1.292       .  A
O2886     Eu2901   2.483       .  S
O2887      C2910   1.311       .  A
O2887     Eu2900   2.549       .  S
O2888      C2911   1.293       .  A
O2888     Eu2902   2.489       .  S
O2890      C2911   1.297       .  A
O2890     Eu2900   2.476   1_554  S
O2891      C2912   1.279       .  A
O2891     Eu2901   2.393       .  S
O2892      C2907   1.297       .  A
O2893      C2910   1.279       .  A
O2894      C2909   1.298       .  A
O2894     Eu2899   2.478   1_554  S
O2895      C2908   1.282       .  A
O2895     Eu2898   2.411       .  S
O2896      C2905   1.281       .  A
O2896     Eu2902   2.406       .  S
O2897      C2906   1.300       .  A
Eu2898     O2916   2.353       .  S
Eu2899     O2903   2.346   1_556  S
Eu2900     O2914   2.318   1_556  S
Eu2900     O2904   2.345   1_556  S
Eu2901     O2903   2.368       .  S
Eu2902     O2914   2.358       .  S
Eu2902     O2904   2.370       .  S
H2913      O2914   0.962   1_556  S
H2915      O2916   0.965       .  S
O2917      C2928   1.307       .  A
O2917     Eu2953   2.525       .  S
O2918      C2929   1.295       .  A
O2918     Eu2952   2.495       .  S
O2919      C2930   1.291       .  A
O2919     Eu2925   2.477       .  S
O2920      C2931   1.305       .  A
O2920     Eu2925   2.516       .  S
O2921      C2931   1.283       .  A
O2921     Eu2955   2.418       .  S
O2922      C2930   1.298       .  A
O2922     Eu2954   2.478       .  S
O2923      C2929   1.298       .  A
O2923     Eu2925   2.478       .  S
O2924      C2928   1.282       .  A
O2924     Eu2925   2.408       .  S
Eu2925     O2935   2.358       .  S
Eu2925     O2927   2.367       .  S
Eu2925     O2926   2.327       .  S
Eu2925     O2933   2.356       .  S
O2926     Eu2955   2.368       .  S
O2926     Eu2952   2.345       .  S
O2927     Eu2953   2.328       .  S
O2927     Eu2954   2.343       .  S
H2932      O2933   0.963       .  S
O2933     Eu2954   2.321       .  S
O2933     Eu2952   2.382       .  S
H2934      O2935   0.966       .  S
O2935     Eu2953   2.363       .  S
O2935     Eu2955   2.359       .  S
O2936      C2959   1.312       .  A
O2936     Eu2952   2.552       .  S
O2937      C2960   1.293       .  A
O2937     Eu2953   2.485       .  S
O2938      C2961   1.310       .  A
O2938     Eu2954   2.545       .  S
O2939      C2962   1.292       .  A
O2939     Eu2955   2.477       .  S
O2940      C2963   1.307       .  A
O2940     Eu2955   2.526       .  S
O2941      C2964   1.295   1_655  A
O2941     Eu2954   2.495       .  S
O2942      C2965   1.311       .  A
O2942     Eu2956   2.546       .  S
O2943      C2966   1.294       .  A
O2943     Eu2956   2.493       .  S
O2944      C2965   1.278       .  A
O2944     Eu2954   2.382       .  S
O2945      C2966   1.299       .  A
O2945     Eu2955   2.487       .  S
O2946      C2961   1.279       .  A
O2946     Eu2952   2.391       .  S
O2947      C2964   1.299       .  A
O2947     Eu2953   2.486   1_455  S
O2948      C2963   1.281       .  A
O2948     Eu2953   2.402       .  S
O2949      C2962   1.299       .  A
O2949     Eu2952   2.482       .  S
O2950      C2959   1.276       .  A
O2950     Eu2956   2.371       .  S
O2951      C2960   1.297       .  A
O2951     Eu2956   2.474       .  S
Eu2952     O2970   2.326       .  S
Eu2952     O2958   2.344       .  S
Eu2953     O2957   2.370       .  S
Eu2953     O2968   2.354       .  S
Eu2954     O2968   2.382       .  S
Eu2954     O2958   2.347       .  S
Eu2955     O2957   2.331       .  S
Eu2955     O2970   2.362       .  S
Eu2956     O2957   2.343       .  S
Eu2956     O2968   2.315       .  S
Eu2956     O2970   2.379       .  S
Eu2956     O2958   2.347       .  S
H2967      O2968   0.962       .  S
H2969      O2970   0.963       .  S
O2971      C2982   1.290       .  A
O2971     Eu3007   2.466       .  S
O2972      C2983   1.311       .  A
O2972     Eu3006   2.550       .  S
O2973      C2984   1.294       .  A
O2973     Eu2979   2.489       .  S
O2974      C2985   1.310       .  A
O2974     Eu2979   2.542       .  S
O2975      C2985   1.277       .  A
O2975     Eu3009   2.381       .  S
O2976      C2984   1.299       .  A
O2976     Eu3008   2.482       .  S
O2977      C2983   1.279       .  A
O2977     Eu2979   2.390       .  S
O2978      C2982   1.296       .  A
O2978     Eu2979   2.469       .  S
Eu2979     O2989   2.334       .  S
Eu2979     O2981   2.341       .  S
Eu2979     O2980   2.342       .  S
Eu2979     O2987   2.377       .  S
O2980     Eu3009   2.352       .  S
O2980     Eu3006   2.350       .  S
O2981     Eu3007   2.367       .  S
O2981     Eu3008   2.322       .  S
H2986      O2987   0.963       .  S
O2987     Eu3008   2.357       .  S
O2987     Eu3006   2.316       .  S
H2988      O2989   0.963       .  S
O2989     Eu3007   2.363       .  S
O2989     Eu3009   2.377       .  S
O2990      C3013   1.292       .  A
O2990     Eu3006   2.472       .  S
O2991      C3014   1.307       .  A
O2991     Eu3007   2.528       .  S
O2992      C3015   1.293       .  A
O2992     Eu3008   2.484       .  S
O2993      C3016   1.312       .  A
O2993     Eu3009   2.551       .  S
O2994      C3017   1.295       .  A
O2994     Eu3009   2.492       .  S
O2995      C3018   1.308       .  A
O2995     Eu3008   2.530       .  S
O2996      C3019   1.308       .  A
O2996     Eu3010   2.533       .  S
O2997      C3020   1.293       .  A
O2997     Eu3010   2.483       .  S
O2998      C3019   1.281       .  A
O2998     Eu3008   2.402       .  S
O2999      C3020   1.298       .  A
O2999     Eu3009   2.476       .  S
O3000      C3015   1.302       .  A
O3000     Eu3006   2.501       .  S
O3001      C3018   1.282       .  A
O3001     Eu3007   2.403       .  S
O3002      C3017   1.302       .  A
O3002     Eu3007   2.505       .  S
O3003      C3016   1.280       .  A
O3003     Eu3006   2.392       .  S
O3004      C3013   1.298       .  A
O3004     Eu3010   2.478       .  S
O3005      C3014   1.281       .  A
O3005     Eu3010   2.407       .  S
Eu3006     O3024   2.383       .  S
Eu3006     O3012   2.353       .  S
Eu3007     O3011   2.319       .  S
Eu3007     O3022   2.359       .  S
Eu3008     O3022   2.360       .  S
Eu3008     O3012   2.373       .  S
Eu3009     O3011   2.346       .  S
Eu3009     O3024   2.305       .  S
Eu3010     O3011   2.369       .  S
Eu3010     O3022   2.349       .  S
Eu3010     O3024   2.352       .  S
Eu3010     O3012   2.339       .  S
H3021      O3022   0.965       .  S
H3023      O3024   0.961       .  S
O3025      C3036   1.308       .  A
O3025     Eu3061   2.530       .  S
O3026      C3037   1.295       .  A
O3026     Eu3060   2.495       .  S
O3027      C3038   1.291       .  A
O3027     Eu3033   2.475       .  S
O3028      C3039   1.308       .  A
O3028     Eu3033   2.529       .  S
O3029      C3039   1.280       .  A
O3029     Eu3063   2.400       .  S
O3030      C3038   1.299       .  A
O3030     Eu3062   2.479       .  S
O3031      C3037   1.300       .  A
O3031     Eu3033   2.488       .  S
O3032      C3036   1.282       .  A
O3032     Eu3033   2.408       .  S
Eu3033     O3043   2.358       .  S
Eu3033     O3035   2.367       .  S
Eu3033     O3034   2.328       .  S
Eu3033     O3041   2.358       .  S
O3034     Eu3063   2.369       .  S
O3034     Eu3060   2.347       .  S
O3035     Eu3061   2.322       .  S
O3035     Eu3062   2.343       .  S
H3040      O3041   0.962       .  S
O3041     Eu3062   2.318       .  S
O3041     Eu3060   2.381       .  S
H3042      O3043   0.966       .  S
O3043     Eu3061   2.358       .  S
O3043     Eu3063   2.360       .  S
O3044      C3067   1.311       .  A
O3044     Eu3060   2.547       .  S
O3045      C3068   1.291       .  A
O3045     Eu3061   2.475       .  S
O3046      C3069   1.310       .  A
O3046     Eu3062   2.542       .  S
O3047      C3070   1.293       .  A
O3047     Eu3063   2.485       .  S
O3048      C3071   1.306       .  A
O3048     Eu3063   2.523       .  S
O3049      C3072   1.294       .  A
O3049     Eu3062   2.490       .  S
O3050      C3073   1.308       .  A
O3050     Eu3064   2.533       .  S
O3051      C3074   1.294       .  A
O3051     Eu3064   2.492       .  S
O3052      C3073   1.279       .  A
O3052     Eu3062   2.392       .  S
O3053      C3074   1.297       .  A
O3053     Eu3063   2.477       .  S
O3054      C3069   1.278       .  A
O3054     Eu3060   2.383       .  S
O3055      C3072   1.299       .  A
O3055     Eu3061   2.488       .  S
O3056      C3071   1.282       .  A
O3056     Eu3061   2.409       .  S
O3057      C3070   1.298       .  A
O3057     Eu3060   2.481       .  S
O3058      C3067   1.279       .  A
O3058     Eu3064   2.393       .  S
O3059      C3068   1.297       .  A
O3059     Eu3064   2.474       .  S
Eu3060     O3078   2.324       .  S
Eu3060     O3066   2.349       .  S
Eu3061     O3065   2.371       .  S
Eu3061     O3076   2.359       .  S
Eu3062     O3076   2.377       .  S
Eu3062     O3066   2.347       .  S
Eu3063     O3065   2.326       .  S
Eu3063     O3078   2.358       .  S
Eu3064     O3065   2.342       .  S
Eu3064     O3076   2.328       .  S
Eu3064     O3078   2.379       .  S
Eu3064     O3066   2.346       .  S
H3075      O3076   0.963       .  S
H3077      O3078   0.963       .  S
O3079      C3090   1.305       .  A
O3080      C3091   1.292       .  A
O3081     Eu3087   2.546       .  S
O3082      C3093   1.294       .  A
O3082     Eu3087   2.491       .  S
O3083      C3093   1.301       .  A
O3083     Eu3117   2.494       .  S
O3084      C3092   1.282       .  A
O3084     Eu3116   2.411       .  S
O3085      C3091   1.298       .  A
O3085     Eu3087   2.479       .  S
O3086      C3090   1.281       .  A
O3086     Eu3087   2.402       .  S
Eu3087     O3097   2.379       .  S
Eu3087     O3088   2.350       .  S
O3088     Eu3117   2.327       .  S
O3089     Eu3116   2.353       .  S
H3094      O3095   0.963       .  S
O3095     Eu3116   2.375       .  S
O3095     Eu3114   2.354       .  S
H3096      O3097   0.962       .  S
O3097     Eu3117   2.354       .  S
O3098      C3121   1.306       .  A
O3098     Eu3114   2.524       .  S
O3099      C3122   1.293       .  A
O3099     Eu3115   2.485       .  S
O3100      C3123   1.294       .  A
O3100     Eu3116   2.491       .  S
O3101      C3124   1.310       .  A
O3101     Eu3117   2.541       .  S
O3102      C3125   1.293       .  A
O3103      C3126   1.308       .  A
O3104      C3127   1.292       .  A
O3104     Eu3118   2.477       .  S
O3105      C3128   1.308   1_565  A
O3105     Eu3118   2.533       .  S
O3106      C3127   1.299       .  A
O3108      C3123   1.298       .  A
O3108     Eu3114   2.478       .  S
O3109      C3126   1.279       .  A
O3109     Eu3115   2.395       .  S
O3110      C3125   1.296       .  A
O3111      C3124   1.279       .  A
O3112      C3121   1.282       .  A
O3113      C3122   1.300       .  A
O3113     Eu3118   2.490       .  S
Eu3114     O3132   2.358       .  S
Eu3114     O3120   2.324       .  S
Eu3115     O3119   2.342       .  S
Eu3115     O3130   2.372       .  S
Eu3116     O3120   2.347       .  S
Eu3118     O3119   2.323       .  S
Eu3118     O3130   2.361       .  S
H3129      O3130   0.963       .  S
H3131      O3132   0.965       .  S
C3133      C3134   1.409       .  A
C3133      C3138   1.396       .  A
C3133     Br3140   1.926       .  S
C3134      C3135   1.402       .  A
C3135      C3136   1.397       .  A
C3135     Br3142   1.929       .  S
C3136      C3137   1.410       .  A
C3136     Br3141   1.933       .  S
C3137      C3138   1.401       .  A
C3138     Br3139   1.931       .  S
C3143      C3144   1.402       .  A
C3143      C3148   1.397       .  A
C3143     Br3150   1.933       .  S
C3144      C3145   1.414   1_554  A
C3145      C3146   1.396   1_556  A
C3145     Br3152   1.929       .  S
C3146      C3147   1.401       .  A
C3146     Br3151   1.934   1_554  S
C3147      C3148   1.415       .  A
C3148     Br3149   1.933       .  S
C3153      C3154   1.405       .  A
C3153      C3158   1.397       .  A
C3153     Br3160   1.932       .  S
C3154      C3155   1.410       .  A
C3155      C3156   1.397       .  A
C3155     Br3162   1.932       .  S
C3156      C3157   1.405       .  A
C3156     Br3161   1.932       .  S
C3157      C3158   1.409       .  A
C3163      C3168   1.396       .  A
C3163     Br3170   1.933       .  S
C3164      C3165   1.401       .  A
C3165     Br3172   1.930       .  S
C3166      C3167   1.412       .  A
C3166     Br3171   1.934   1_565  S
C3167      C3168   1.401       .  A
C3168     Br3169   1.931       .  S
C3173      C3174   1.406       .  A
C3173      C3178   1.399       .  A
C3173     Br3180   1.886       .  S
C3174      C3175   1.403       .  A
C3175      C3176   1.401       .  A
C3175     Br3182   1.932       .  S
C3176      C3177   1.408       .  A
C3176     Br3181   1.891       .  S
C3177      C3178   1.403       .  A
C3178     Br3179   1.936       .  S
C3183      C3184   1.404       .  A
C3183      C3188   1.396       .  A
C3183     Br3190   1.932       .  S
C3184      C3185   1.409       .  A
C3185      C3186   1.398       .  A
C3185     Br3192   1.932       .  S
C3186      C3187   1.404       .  A
C3186     Br3191   1.931       .  S
C3187      C3188   1.409       .  A
C3188     Br3189   1.932       .  S
C3193      C3194   1.416       .  A
C3193      C3198   1.396       .  A
C3193     Br3200   1.926       .  S
C3194      C3195   1.402       .  A
C3195      C3196   1.395       .  A
C3195     Br3202   1.933       .  S
C3196      C3197   1.414       .  A
C3196     Br3201   1.933       .  S
C3197      C3198   1.400       .  A
C3198     Br3199   1.935       .  S
C3203      C3204   1.416       .  A
C3203      C3208   1.396       .  A
C3203     Br3210   1.925       .  S
C3204      C3205   1.402       .  A
C3205      C3206   1.395       .  A
C3205     Br3212   1.933       .  S
C3206      C3207   1.413       .  A
C3206     Br3211   1.933       .  S
C3207      C3208   1.399       .  A
C3208     Br3209   1.934       .  S
C3213      C3214   1.404       .  A
C3213      C3218   1.397       .  A
C3213     Br3220   1.931       .  S
C3215      C3216   1.396       .  A
C3215     Br3222   1.933   1_554  S
C3216      C3217   1.404       .  A
C3216     Br3221   1.933       .  S
C3218     Br3219   1.928       .  S
C3223      C3224   1.409       .  A
C3223      C3228   1.398       .  A
C3223     Br3230   1.928       .  S
C3224      C3225   1.404       .  A
C3225      C3226   1.396       .  A
C3225     Br3232   1.933       .  S
C3226      C3227   1.410       .  A
C3226     Br3231   1.934       .  S
C3227      C3228   1.403       .  A
C3228     Br3229   1.930       .  S
C3233      C3234   1.405       .  A
C3233      C3238   1.396       .  A
C3233     Br3240   1.931       .  S
C3234      C3235   1.409       .  A
C3235      C3236   1.396       .  A
C3236      C3237   1.403       .  A
C3237      C3238   1.409       .  A
C3238     Br3239   1.932       .  S
C3243      C3244   1.413       .  A
C3243      C3248   1.396       .  A
C3243     Br3250   1.931       .  S
C3244      C3245   1.401       .  A
C3245      C3246   1.395       .  A
C3245     Br3252   1.933       .  S
C3246      C3247   1.415       .  A
C3246     Br3251   1.937       .  S
C3247      C3248   1.401       .  A
C3248     Br3249   1.932       .  S
C3253      C3254   1.401       .  A
C3253      C3258   1.394       .  A
C3253     Br3260   1.935       .  S
C3254      C3255   1.413       .  A
C3255      C3256   1.397       .  A
C3255     Br3262   1.931       .  S
C3256      C3257   1.402       .  A
C3256     Br3261   1.932       .  S
C3257      C3258   1.415       .  A
C3258     Br3259   1.934       .  S
C3263      C3264   1.411       .  A
C3263      C3268   1.395       .  A
C3263     Br3270   1.931       .  S
C3264      C3265   1.402       .  A
C3265      C3266   1.398       .  A
C3265     Br3272   1.929       .  S
C3266      C3267   1.411       .  A
C3266     Br3271   1.932       .  S
C3267      C3268   1.401       .  A
C3268     Br3269   1.931       .  S
C3273      C3274   1.404       .  A
C3273      C3278   1.396       .  A
C3273     Br3280   1.932       .  S
C3274      C3275   1.409       .  A
C3275      C3276   1.399       .  A
C3275     Br3282   1.931   1_554  S
C3276      C3277   1.405       .  A
C3276     Br3281   1.931       .  S
C3277      C3278   1.410       .  A
C3278     Br3279   1.930       .  S
C3283      C3284   1.409       .  A
C3283      C3288   1.395       .  A
C3283     Br3290   1.932       .  S
C3285     Br3292   1.931       .  S
C3286      C3287   1.409       .  A
C3287      C3288   1.404       .  A
C3288     Br3289   1.931       .  S
C3293      C3294   1.413       .  A
C3293      C3298   1.397       .  A
C3293     Br3300   1.934       .  S
C3294      C3295   1.402       .  A
C3295      C3296   1.394       .  A
C3295     Br3302   1.933       .  S
C3296      C3297   1.413       .  A
C3296     Br3301   1.936       .  S
C3297      C3298   1.402       .  A
C3298     Br3299   1.931       .  S
C3303      C3304   1.402       .  A
C3303      C3308   1.389       .  A
C3303     Br3310   1.936       .  S
C3304      C3305   1.407       .  A
C3305      C3306   1.394       .  A
C3306      C3307   1.404       .  A
C3306     Br3311   1.930       .  S
C3307      C3308   1.410       .  A
