geometry optimzed in LAMMPS
_audit_creation_date              2020-11-30 
_audit_creation_method            'lammps2cif' 
_symmetry_space_group_name_H-M    'P1' 
_symmetry_Int_Tables_number       1 
_symmetry_cell_setting            triclinic 
loop_ 
_symmetry_equiv_pos_as_xyz 
  x,y,z 
_cell_length_a                    29.02148887391998 
_cell_length_b                    28.913951126163685 
_cell_length_c                    71.83562706639273 
_cell_angle_alpha                 89.61945625827379 
_cell_angle_beta                  90.2611857884662 
_cell_angle_gamma                 120.32692449697922 
loop_ 
_atom_site_label 
_atom_site_type_symbol 
_atom_site_fract_x 
_atom_site_fract_y 
_atom_site_fract_z 
_atom_site_charge 
C1          C  0.67264112  0.10210178  0.73335713     0.04000
C2          C  0.72021969  0.12028349  0.72337221    -0.12150
C3          C  0.72323388  0.08932833  0.70894881     0.01500
C4          C  0.67751679  0.04029039  0.70445791    -0.10670
C5          C  0.62925767  0.02330704  0.71383711     0.04000
C6          C  0.62704099  0.05411009  0.72834943    -0.10090
H7          H  0.75504835  0.15815505  0.72705548     0.09590
H8          H  0.67935162  0.01533463  0.69363441     0.07120
H9          H  0.59027537  0.03998060  0.73607429     0.06970
C10         C  0.01481164  0.23510932  0.66336777     0.04000
C11         C  0.96677907  0.21429503  0.67322439    -0.12150
C12         C  0.92239322  0.16481588  0.66829857     0.01500
C13         C  0.92665339  0.13662696  0.65319782    -0.10670
C14         C  0.97371143  0.15855219  0.64270994     0.04000
C15         C  0.01802164  0.20749306  0.64793416    -0.10090
H16         H  0.96377084  0.23720173  0.68455517     0.09590
H17         H  0.89284517  0.09833855  0.64922261     0.07120
H18         H  0.05437581  0.22457406  0.63979154     0.06970
C19         C  0.54297483  0.88909990  0.83706560     0.04000
C20         C  0.57467257  0.87210916  0.84632403    -0.12150
C21         C  0.57891787  0.82940955  0.83922385     0.01500
C22         C  0.55313962  0.80499979  0.82266919    -0.10670
C23         C  0.51859558  0.81902219  0.81396442     0.04000
C24         C  0.51223309  0.85998717  0.82173303    -0.10090
H25         H  0.59763637  0.89342802  0.85848621     0.09590
H26         H  0.56008112  0.77478980  0.81665239     0.07120
H27         H  0.48634203  0.87197256  0.81504889     0.06970
C28         C  0.73097558  0.68434139  0.88157527     0.04000
C29         C  0.70121912  0.70112895  0.87089586    -0.12150
C30         C  0.69568723  0.74405752  0.87685480     0.01500
C31         C  0.72032709  0.77081889  0.89318880    -0.10670
C32         C  0.75243510  0.75673277  0.90343404     0.04000
C33         C  0.75728621  0.71292193  0.89774209    -0.10090
H34         H  0.68107592  0.67979312  0.85833692     0.09590
H35         H  0.71485030  0.80333357  0.89784762     0.07120
H36         H  0.78023748  0.70034095  0.90609440     0.06970
C37         C  0.88707749  0.56149241  0.50399060     0.04000
C38         C  0.92006478  0.54272052  0.51079537    -0.12150
C39         C  0.91563869  0.49544179  0.50382169     0.01500
C40         C  0.87985299  0.46829271  0.48921890    -0.10670
C41         C  0.84647543  0.48643603  0.48203702     0.04000
C42         C  0.84843976  0.53136622  0.49031974    -0.10090
H43         H  0.95075222  0.56586554  0.52096366     0.09590
H44         H  0.87932155  0.43391279  0.48305971     0.07120
H45         H  0.82208898  0.54513656  0.48542255     0.06970
C46         C  0.10346144  0.37831947  0.53813749     0.04000
C47         C  0.06282133  0.38621683  0.53049516    -0.12150
C48         C  0.05571524  0.42831345  0.53652196     0.01500
C49         C  0.08381531  0.45834757  0.55201622    -0.10670
C50         C  0.12392367  0.45160498  0.56012127     0.04000
C51         C  0.13650977  0.41500622  0.55197857    -0.10090
H52         H  0.03584626  0.35947132  0.52000731     0.09590
H53         H  0.07368552  0.48655473  0.55781847     0.07120
H54         H  0.17138237  0.41489738  0.55707317     0.06970
C55         C  0.67848703  0.55095189  0.00318311     0.04000
C56         C  0.62754377  0.53648742  0.01025755    -0.12150
C57         C  0.58151341  0.48854290  0.00470489     0.01500
C58         C  0.58654699  0.45665209  0.99116779    -0.10670
C59         C  0.63618832  0.47205395  0.98316755     0.04000
C60         C  0.68218045  0.51625306  0.99036119    -0.10090
H61         H  0.62328996  0.56312999  0.01970560     0.09590
H62         H  0.55150855  0.42070060  0.98625278     0.07120
H63         H  0.72062698  0.52592104  0.98478449     0.06970
C64         C  0.28068394  0.36608240  0.03939200     0.04000
C65         C  0.33003612  0.38498904  0.03059468    -0.12150
C66         C  0.37464659  0.43398247  0.03574588     0.01500
C67         C  0.36939472  0.46490275  0.04962339    -0.10670
C68         C  0.32072074  0.44600644  0.05888050     0.04000
C69         C  0.27603543  0.39729133  0.05332013    -0.10090
H70         H  0.33435995  0.36014380  0.02032325     0.09590
H71         H  0.40414869  0.50176921  0.05414251     0.07120
H72         H  0.23880538  0.38170334  0.06086987     0.06970
C73         C  0.95613353  0.70556605  0.37410868     0.04000
C74         C  0.00167112  0.72941438  0.36254861    -0.12150
C75         C  0.04958788  0.77339753  0.36865199     0.01500
C76         C  0.05033662  0.79927254  0.38503541    -0.10670
C77         C  0.00490121  0.77950636  0.39617541     0.04000
C78         C  0.95836246  0.73136183  0.39108151    -0.10090
H79         H  0.00123116  0.71155057  0.34930369     0.09590
H80         H  0.08746593  0.83362711  0.38962435     0.07120
H81         H  0.92479428  0.71363874  0.40054962     0.06970
C82         C  0.30694280  0.83014606  0.30959776     0.04000
C83         C  0.25734153  0.81567868  0.31759753    -0.12150
C84         C  0.25400154  0.83780366  0.33438379     0.01500
C85         C  0.30066035  0.87774505  0.34276412    -0.10670
C86         C  0.35027815  0.89856066  0.33386237     0.04000
C87         C  0.35355000  0.87228901  0.31786062    -0.10090
H88         H  0.22071285  0.78644604  0.31085351     0.09590
H89         H  0.29772176  0.89548209  0.35562461     0.07120
H90         H  0.39203883  0.88580718  0.31157204     0.06970
C91         C  0.21587898  0.22374010  0.16807425     0.04000
C92         C  0.24913128  0.20841426  0.17710302    -0.12150
C93         C  0.25312232  0.16484095  0.17075247     0.01500
C94         C  0.22337716  0.13621573  0.15517730    -0.10670
C95         C  0.18824708  0.14930563  0.14628021     0.04000
C96         C  0.18342274  0.19217174  0.15333227    -0.10090
H97         H  0.27399037  0.23212720  0.18859915     0.09590
H98         H  0.22856049  0.10426396  0.14976836     0.07120
H99         H  0.15697450  0.20323227  0.14654765     0.06970
C100        C  0.44600296  0.10085577  0.23227463     0.04000
C101        C  0.42041399  0.12303231  0.22218081    -0.12150
C102        C  0.38781865  0.09584131  0.20693671     0.01500
C103        C  0.38273484  0.04710674  0.20132216    -0.10670
C104        C  0.40914980  0.02504898  0.21105112     0.04000
C105        C  0.44044863  0.05177638  0.22668792    -0.10090
H106        H  0.42403682  0.16044224  0.22669218     0.09590
H107        H  0.35695644  0.02550848  0.18970758     0.07120
H108        H  0.45949973  0.03405314  0.23464114     0.06970
C109        C  0.04851641  0.59631411  0.83575911     0.04000
C110        C  0.06394264  0.64625704  0.84375598    -0.12150
C111        C  0.10727866  0.69313901  0.83649488     0.01500
C112        C  0.13412044  0.69001531  0.82079880    -0.10670
C113        C  0.11997951  0.64028724  0.81279572     0.04000
C114        C  0.07793107  0.59331673  0.82082644    -0.10090
H115        H  0.04132510  0.64876249  0.85527608     0.09590
H116        H  0.16557450  0.72670940  0.81463853     0.07120
H117        H  0.06601695  0.55458498  0.81482728     0.06970
C118        C  0.24626626  0.99593943  0.87363835     0.04000
C119        C  0.22551907  0.94880869  0.86314547    -0.12150
C120        C  0.17856841  0.90240200  0.86877577     0.01500
C121        C  0.15090833  0.90412879  0.88445293    -0.10670
C122        C  0.17182942  0.95022131  0.89554381     0.04000
C123        C  0.22010041  0.99596443  0.89006825    -0.10090
H124        H  0.24731153  0.94744639  0.85114875     0.09590
H125        H  0.11405367  0.86851506  0.88846662     0.07120
H126        H  0.23809518  0.03124237  0.89879545     0.06970
C127        C  0.78360817  0.74890375  0.64135332     0.04000
C128        C  0.80128947  0.71933236  0.65155958    -0.12150
C129        C  0.77563526  0.69269408  0.66804629     0.01500
C130        C  0.73126134  0.69555518  0.67421628    -0.10670
C131        C  0.71209325  0.72408990  0.66393425     0.04000
C132        C  0.73872631  0.75098578  0.64755411    -0.10090
H133        H  0.83554106  0.71734065  0.64668478     0.09590
H134        H  0.71102672  0.67487186  0.68689091     0.07120
H135        H  0.72379577  0.77230268  0.63939032     0.06970
C136        C  0.92680637  0.54818875  0.71197914     0.04000
C137        C  0.90543515  0.57397759  0.70148816    -0.12150
C138        C  0.85961220  0.57406656  0.70758274     0.01500
C139        C  0.83411385  0.54612770  0.72393692    -0.10670
C140        C  0.85483447  0.51986779  0.73459188     0.04000
C141        C  0.90193295  0.52186466  0.72861578    -0.10090
H142        H  0.92515666  0.59489997  0.68878011     0.09590
H143        H  0.79806415  0.54515179  0.72845516     0.07120
H144        H  0.91948639  0.50331254  0.73694828     0.06970
C145        C  0.39224454  0.27757640  0.50400381     0.04000
C146        C  0.42461874  0.27245504  0.49074156    -0.12150
C147        C  0.46723459  0.31836730  0.48228706     0.01500
C148        C  0.48103561  0.36899579  0.48953127    -0.10670
C149        C  0.45272942  0.37348583  0.50453025     0.04000
C150        C  0.40695987  0.32792389  0.51107569    -0.10090
H151        H  0.41404606  0.23270871  0.48616480     0.09590
H152        H  0.51343923  0.40516688  0.48349852     0.07120
H153        H  0.38249282  0.33173351  0.52162979     0.06970
C154        C  0.59803008  0.67002110  0.54448105     0.04000
C155        C  0.57454960  0.62077741  0.53524394    -0.12150
C156        C  0.52806240  0.57640881  0.54209796     0.01500
C157        C  0.50463790  0.58176390  0.55837410    -0.10670
C158        C  0.52799374  0.63070692  0.56791576     0.04000
C159        C  0.57469748  0.67502169  0.56085191    -0.10090
H160        H  0.59368439  0.61656492  0.52296109     0.09590
H161        H  0.46853961  0.54765827  0.56375766     0.07120
H162        H  0.59352012  0.71264659  0.56831343     0.06970
C163        C  0.36760909  0.03601735  0.99603584     0.04000
C164        C  0.39268286  0.01314655  0.00628376    -0.12150
C165        C  0.43403369  0.00838243  0.99843515     0.01500
C166        C  0.45568142  0.03268219  0.98145121    -0.10670
C167        C  0.43406487  0.05885449  0.97158256     0.04000
C168        C  0.38863740  0.05858057  0.97841953    -0.10090
H169        H  0.37885237  0.99703694  0.02010561     0.09590
H170        H  0.49002845  0.03175946  0.97602200     0.07120
H171        H  0.37037328  0.07629545  0.97005481     0.06970
C172        C  0.58197201  0.86317017  0.04120914     0.04000
C173        C  0.55856012  0.88375277  0.02909133    -0.12150
C174        C  0.51171968  0.88266863  0.03406649     0.01500
C175        C  0.48412571  0.85554402  0.05004078    -0.10670
C176        C  0.50610579  0.83439711  0.06238845     0.04000
C177        C  0.55575100  0.83897131  0.05804093    -0.10090
H178        H  0.57854243  0.90377620  0.01629572     0.09590
H179        H  0.44629006  0.85277168  0.05312320     0.07120
H180        H  0.57415308  0.82450264  0.06783526     0.06970
C181        C  0.25029617  0.20749268  0.37082232     0.04000
C182        C  0.22001300  0.17233488  0.38526726    -0.12150
C183        C  0.17899276  0.17687596  0.39401898     0.01500
C184        C  0.16545532  0.21350992  0.38649885    -0.10670
C185        C  0.19116186  0.24406667  0.37060222     0.04000
C186        C  0.23439443  0.24177124  0.36302831    -0.10090
H187        H  0.23109351  0.14402148  0.39039841     0.09590
H188        H  0.13532551  0.21925615  0.39316791     0.07120
H189        H  0.25694261  0.26810858  0.35160928     0.06970
C190        C  0.05256054  0.41115742  0.33477063     0.04000
C191        C  0.07901180  0.43724446  0.31820792    -0.12150
C192        C  0.12358393  0.43434183  0.31219462     0.01500
C193        C  0.14155205  0.40577469  0.32276083    -0.10670
C194        C  0.11599909  0.37987555  0.33926969     0.04000
C195        C  0.07175791  0.38311726  0.34533728    -0.10090
H196        H  0.06364245  0.45747189  0.30966858     0.09590
H197        H  0.17492546  0.40238190  0.31775222     0.07120
H198        H  0.05073997  0.36182217  0.35782655     0.06970
C199        C  0.84774364  0.27877380  0.23325999     0.04000
C200        C  0.82150713  0.23420138  0.22136150    -0.12150
C201        C  0.84583844  0.23146167  0.20487508     0.01500
C202        C  0.89263699  0.27696079  0.19868740    -0.10670
C203        C  0.91801369  0.32248223  0.20990904     0.04000
C204        C  0.89756640  0.32165725  0.22756798    -0.10090
H205        H  0.78326748  0.20032490  0.22522069     0.09590
H206        H  0.91103316  0.27572942  0.18574421     0.07120
H207        H  0.92117185  0.35472559  0.23685505     0.06970
C208        C  0.78663776  0.97541325  0.14546016     0.04000
C209        C  0.80065639  0.02377053  0.15450539    -0.12150
C210        C  0.77251509  0.02450953  0.17026662     0.01500
C211        C  0.72843785  0.97662733  0.17656639    -0.10670
C212        C  0.71318020  0.92822297  0.16745638     0.04000
C213        C  0.74365211  0.92744316  0.15249733    -0.10090
H214        H  0.83285009  0.06123465  0.14907519     0.09590
H215        H  0.70500361  0.97723348  0.18816627     0.07120
H216        H  0.73163537  0.88980947  0.14559277     0.06970
C217        C  0.52379478  0.64629240  0.31082586     0.04000
C218        C  0.54841588  0.69253231  0.32188625    -0.12150
C219        C  0.57849847  0.69516815  0.33758107     0.01500
C220        C  0.58079686  0.64978055  0.34304357    -0.10670
C221        C  0.55667508  0.60338512  0.33221224     0.04000
C222        C  0.52905932  0.60202374  0.31593373    -0.10090
H223        H  0.54570448  0.72730153  0.31792309     0.09590
H224        H  0.60360889  0.65142673  0.35527182     0.07120
H225        H  0.51209147  0.56672307  0.30722157     0.06970
C226        C  0.73972940  0.99398729  0.37736465     0.04000
C227        C  0.71104025  0.94569483  0.36770273    -0.12150
C228        C  0.71066931  0.89955683  0.37402543     0.01500
C229        C  0.74090896  0.90261268  0.38975925    -0.10670
C230        C  0.77079128  0.95118481  0.39924910     0.04000
C231        C  0.76975150  0.99678378  0.39310214    -0.10090
H232        H  0.68736398  0.94356562  0.35567179     0.09590
H233        H  0.74045616  0.86698956  0.39482754     0.07120
H234        H  0.79147788  0.03403244  0.40070549     0.06970
C235        C  0.42343128  0.33329857  0.70767644     0.04000
C236        C  0.39403398  0.28437653  0.69826118    -0.12150
C237        C  0.40055387  0.24070403  0.70259573     0.01500
C238        C  0.43409166  0.24450172  0.71724770    -0.10670
C239        C  0.46056469  0.29134297  0.72780763     0.04000
C240        C  0.45809791  0.33660364  0.72209088    -0.10090
H241        H  0.36487080  0.27944540  0.68782608     0.09590
H242        H  0.43697490  0.20976208  0.72114873     0.07120
H243        H  0.48112770  0.37370077  0.72960217     0.06970
C244        C  0.22592502  0.93931574  0.66952444     0.04000
C245        C  0.26534155  0.98947884  0.67582655    -0.12150
C246        C  0.27155425  0.03567363  0.66726648     0.01500
C247        C  0.24188823  0.03175541  0.65133860    -0.10670
C248        C  0.19903927  0.98196033  0.64553958     0.04000
C249        C  0.18970569  0.93604697  0.65573303    -0.10090
H250        H  0.29182196  0.99267450  0.68706746     0.09590
H251        H  0.25202639  0.06821886  0.64382511     0.07120
H252        H  0.15626966  0.89701507  0.65247554     0.06970
C253        C  0.68858080  0.06589804  0.50134767     0.04000
C254        C  0.64492098  0.04517796  0.51374031    -0.12150
C255        C  0.59552307  0.03920905  0.50829511     0.01500
C256        C  0.59241585  0.06029081  0.49091801    -0.10670
C257        C  0.63643748  0.08480712  0.47889377     0.04000
C258        C  0.68378776  0.08545686  0.48393129    -0.10090
H259        H  0.64935120  0.03206046  0.52741574     0.09590
H260        H  0.55533922  0.05763297  0.48668900     0.07120
H261        H  0.71675578  0.10098668  0.47420248     0.06970
C262        C  0.28887832  0.86590443  0.54136740     0.04000
C263        C  0.28561118  0.83675157  0.55755135    -0.12150
C264        C  0.33188974  0.84023935  0.56508408     0.01500
C265        C  0.38115697  0.87375770  0.55674454    -0.10670
C266        C  0.38487839  0.90125291  0.54015006     0.04000
C267        C  0.33811716  0.89610791  0.53227088    -0.10090
H268        H  0.24790379  0.81399236  0.56478935     0.09590
H269        H  0.41699997  0.87891366  0.56344115     0.07120
H270        H  0.34040459  0.91827238  0.51975229     0.06970
C271        C  0.61383828  0.52631203  0.20446120     0.04000
C272        C  0.66410097  0.56079814  0.19683052    -0.12150
C273        C  0.70979975  0.56558735  0.20519222     0.01500
C274        C  0.70562019  0.53674494  0.22138742    -0.10670
C275        C  0.65550785  0.49979550  0.22882718     0.04000
C276        C  0.60939756  0.49403577  0.21993769    -0.10090
H277        H  0.66793836  0.58605483  0.18502415     0.09590
H278        H  0.74182962  0.54331223  0.22819668     0.07120
H279        H  0.57019916  0.46670389  0.22551849     0.06970
C280        C  0.01123244  0.72796545  0.17014168     0.04000
C281        C  0.96437495  0.70668371  0.18094826    -0.12150
C282        C  0.91797125  0.70350331  0.17372979     0.01500
C283        C  0.91920644  0.72673825  0.15658890    -0.10670
C284        C  0.96635153  0.75299126  0.14629445     0.04000
C285        C  0.01188787  0.75199994  0.15282616    -0.10090
H286        H  0.96269090  0.68955491  0.19454951     0.09590
H287        H  0.88273297  0.72309746  0.15100920     0.07120
H288        H  0.04722612  0.76885061  0.14419499     0.06970
C289        C  0.87057952  0.25548806  0.00628184     0.04000
C290        C  0.89761917  0.30548816  0.01500244    -0.12150
C291        C  0.89504185  0.34934095  0.00768769     0.01500
C292        C  0.86498070  0.34238801  0.99148500    -0.10670
C293        C  0.83977032  0.29307768  0.98224271     0.04000
C294        C  0.84146824  0.24940495  0.98993868    -0.10090
H295        H  0.92316122  0.31099899  0.02684210     0.09590
H296        H  0.86280762  0.37588008  0.98563440     0.07120
H297        H  0.82333908  0.21169173  0.98251994     0.06970
C298        C  0.06739539  0.65413887  0.03998058     0.04000
C299        C  0.03152088  0.60286630  0.03345536    -0.12150
C300        C  0.03088622  0.55791673  0.04099240     0.01500
C301        C  0.06473119  0.56418259  0.05588235    -0.10670
C302        C  0.10203840  0.61543697  0.06254456     0.04000
C303        C  0.10463208  0.66067307  0.05380458    -0.10090
H304        H  0.00308432  0.59782543  0.02267203     0.09590
H305        H  0.06161750  0.52877093  0.06234183     0.07120
H306        H  0.13335134  0.70070891  0.05837697     0.06970
C307        C  0.33843261  0.37026816  0.82869491     0.04000
C308        C  0.33966012  0.39505066  0.81149969    -0.12150
C309        C  0.29455809  0.39669537  0.80515280     0.01500
C310        C  0.24641576  0.36867890  0.81482891    -0.10670
C311        C  0.24392776  0.34222980  0.83140395     0.04000
C312        C  0.29036890  0.34621648  0.83890543    -0.10090
H313        H  0.37547743  0.41352957  0.80309206     0.09590
H314        H  0.21088234  0.36755549  0.80946411     0.07120
H315        H  0.28819392  0.32886970  0.85250171     0.06970
C316        C  0.99766183  0.16228955  0.89609851     0.04000
C317        C  0.04215171  0.18433980  0.88443551    -0.12150
C318        C  0.04131314  0.20780735  0.86755578     0.01500
C319        C  0.99443030  0.20599508  0.86160490    -0.10670
C320        C  0.95019313  0.18773346  0.87362564     0.04000
C321        C  0.95254010  0.16582846  0.89107599    -0.10090
H322        H  0.07827407  0.18498483  0.88883172     0.09590
H323        H  0.99393337  0.22182311  0.84795785     0.07120
H324        H  0.92010952  0.15249166  0.90092769     0.06970
O325        O  0.70949987  0.24786239  0.80716825    -0.85610
O326        O  0.48064688  0.20623383  0.86928870    -0.85780
O327        O  0.55971380  0.12361439  0.83786304    -0.87450
O328        O  0.54899926  0.24668524  0.80582856    -0.86200
O329        O  0.58743457  0.33795858  0.80732088    -0.85790
O330        O  0.60884256  0.12661057  0.86351268    -0.87170
O331        O  0.48449284  0.16940528  0.84147929    -0.85640
O332        O  0.61814686  0.19598341  0.80547238    -0.85230
Zr333      Zr  0.57940791  0.21534470  0.83236072     2.84310
O334        O  0.57079281  0.28536998  0.84463319    -1.07210
O335        O  0.65950796  0.22233048  0.84308040    -1.07940
C336        C  0.66579712  0.21223241  0.79934834     1.07490
C337        C  0.45937418  0.17173600  0.85599600     1.07440
C338        C  0.57689999  0.10210088  0.84976189     1.10420
C339        C  0.55758757  0.29230433  0.79938706     1.08200
H340        H  0.54990460  0.17666402  0.86891398     0.33760
O341        O  0.57883439  0.21093249  0.86492608    -1.28160
H342        H  0.65381416  0.30011395  0.80991947     0.33430
O343        O  0.65244731  0.29790599  0.82333707    -1.29840
O344        O  0.59507114  0.33835421  0.90515224    -0.85610
O345        O  0.82093245  0.37878018  0.84194294    -0.87100
O346        O  0.59546212  0.17771321  0.90145425    -0.85680
O347        O  0.56199873  0.37276505  0.84019722    -0.85730
O348        O  0.70617322  0.40771860  0.80913772    -0.85450
O349        O  0.73420721  0.20559110  0.86944762    -0.85250
O350        O  0.75170915  0.33706669  0.90501551    -0.85620
O351        O  0.73593925  0.46130569  0.87402649    -0.85090
O352        O  0.71068185  0.24533510  0.90374307    -0.86150
O353        O  0.68760729  0.45872856  0.84812996    -0.85310
O354        O  0.54457748  0.21776844  0.90279278    -0.85710
O355        O  0.77555770  0.25507061  0.84349446    -0.85430
O356        O  0.75820833  0.36898985  0.80848419    -0.85080
O357        O  0.52101805  0.32499105  0.86655966    -0.85490
O358        O  0.68654338  0.38908747  0.90644633    -0.85780
O359        O  0.81549246  0.41845298  0.86882806    -0.87120
Zr360      Zr  0.56934248  0.28072206  0.87718611     2.83100
Zr361      Zr  0.73205529  0.30545353  0.83426405     2.83500
Zr362      Zr  0.65813665  0.21793582  0.87560232     2.84090
Zr363      Zr  0.64298472  0.36793567  0.83515600     2.83360
Zr364      Zr  0.72160869  0.37074009  0.87867876     2.84220
O365        O  0.72293727  0.37580665  0.84607719    -1.07690
O366        O  0.64908984  0.28797749  0.88760332    -1.07190
C367        C  0.63960861  0.37290826  0.91310155     1.07470
C368        C  0.84108686  0.41495978  0.85469375     1.10080
C369        C  0.55898174  0.18486528  0.90883008     1.07640
C370        C  0.52338807  0.35320488  0.85215441     1.08000
C371        C  0.74320406  0.40100394  0.80189454     1.07580
C372        C  0.77184054  0.22394663  0.85714159     1.07140
C373        C  0.74145687  0.29076775  0.91150982     1.07560
C374        C  0.71727621  0.48243726  0.86249667     1.07070
H375        H  0.76447060  0.30547199  0.87141539     0.33750
O376        O  0.73125054  0.30109705  0.86675687    -1.28790
H377        H  0.63534346  0.39015064  0.87310313     0.33770
O378        O  0.64112273  0.36293690  0.86782904    -1.30170
O379        O  0.86594468  0.91725578  0.97475814    -0.85610
O380        O  0.05290196  0.86573885  0.03412761    -0.85780
O381        O  0.02470932  0.90729274  0.97078037    -0.87450
O382        O  0.89355245  0.79168576  0.00588713    -0.86200
O383        O  0.84855193  0.79536140  0.03129493    -0.85790
O384        O  0.08547673  0.99701503  0.97301157    -0.87170
O385        O  0.00705249  0.82930615  0.00687645    -0.85640
O386        O  0.89695687  0.85830387  0.97381529    -0.85230
Zr387      Zr  0.96527745  0.88101457  0.99811799     2.84310
O388        O  0.96558619  0.87751360  0.03084940    -1.07210
O389        O  0.98193393  0.96509755  0.98845910    -1.07940
C390        C  0.86635035  0.87621634  0.96813089     1.07490
C391        C  0.03498132  0.83025150  0.02104718     1.07440
C392        C  0.06537585  0.95140053  0.96471312     1.10420
C393        C  0.85495343  0.76975241  0.01769065     1.08200
H394        H  0.07490718  0.93962366  0.00529099     0.33760
O395        O  0.04795608  0.94663130  0.01003245    -1.28160
H396        H  0.86339083  0.86677991  0.00563818     0.33430
O397        O  0.89796070  0.89409864  0.01005590    -1.29840
O398        O  0.08684331  0.00525356  0.06965208    -0.85610
O399        O  0.90303996  0.05311346  0.00825160    -0.87100
O400        O  0.14954929  0.03766896  0.00710258    -0.85680
O401        O  0.92153245  0.84948673  0.06909688    -0.85730
O402        O  0.81167827  0.88181220  0.03515754    -0.85450
O403        O  0.04745893  0.07174541  0.97365580    -0.85250
O404        O  0.06904164  0.12949808  0.03722863    -0.85620
O405        O  0.93029228  0.01615183  0.06982792    -0.85090
O406        O  0.11390316  0.12297141  0.01200700    -0.86150
O407        O  0.87409093  0.92491477  0.06946132    -0.85310
O408        O  0.14082323  0.98946398  0.03354164    -0.85710
O409        O  0.95632287  0.03242830  0.97170654    -0.85430
O410        O  0.82145549  0.93429008  0.00964672    -0.85080
O411        O  0.01233387  0.88438738  0.06901183    -0.85490
O412        O  0.05086912  0.05991632  0.07049413    -0.85780
O413        O  0.94718261  0.08966430  0.03565249    -0.87120
Zr414      Zr  0.04752438  0.94485320  0.04270304     2.83100
Zr415      Zr  0.91428043  0.97821035  0.99984691     2.83500
Zr416      Zr  0.06414170  0.03110432  0.00052991     2.82950
Zr417      Zr  0.89710304  0.88872619  0.04266344     2.83360
Zr418      Zr  0.99291427  0.04076733  0.04382415     2.84220
O419        O  0.91179034  0.97256675  0.03238103    -1.07690
O420        O  0.06249017  0.02866944  0.03307367    -1.07190
C421        C  0.08132558  0.04311703  0.07697175     1.07470
C422        C  0.91838708  0.08757149  0.02156580     1.10080
C423        C  0.16781286  0.01864278  0.01954611     1.07640
C424        C  0.96543973  0.85452271  0.07592094     1.08000
C425        C  0.79387951  0.90228960  0.02302229     1.07580
C426        C  0.00430953  0.06289242  0.96537057     1.07140
C427        C  0.10807572  0.14894496  0.02549694     1.07560
C428        C  0.89131547  0.97199578  0.07646876     1.07070
H429        H  0.00359214  0.08078316  0.00694911     0.33750
O430        O  0.99639493  0.04600633  0.01120154    -1.28790
H431        H  0.97876066  0.95624416  0.06738694     0.33770
O432        O  0.97896312  0.95731157  0.05394855    -1.30170
O433        O  0.75297403  0.34691476  0.40540054    -0.85610
O434        O  0.57398527  0.39092479  0.33995972    -0.85780
O435        O  0.73995622  0.47129855  0.36985660    -0.87450
O436        O  0.60236438  0.35653703  0.40444061    -0.86200
O437        O  0.55164807  0.26492760  0.40528675    -0.85790
O438        O  0.77756999  0.46524148  0.34267667    -0.87170
O439        O  0.61860469  0.43163442  0.36696308    -0.85640
O440        O  0.71871575  0.40327792  0.40429556    -0.85230
Zr441      Zr  0.66231997  0.38247929  0.37707273     2.84310
O442        O  0.58044727  0.31202597  0.36624225    -1.07210
O443        O  0.73237351  0.37128420  0.36631916    -1.07940
C444        C  0.74632953  0.38477293  0.41202202     1.07490
C445        C  0.59112853  0.42851632  0.35234334     1.07440
C446        C  0.77566977  0.49165261  0.35681215     1.10420
C447        C  0.56735570  0.31162426  0.41218222     1.08200
H448        H  0.66922051  0.41585587  0.33952340     0.33760
O449        O  0.66279094  0.38193510  0.34436717    -1.28160
H450        H  0.65087679  0.30000386  0.40110137     0.33430
O451        O  0.65089785  0.30063921  0.38767546    -1.29840
O452        O  0.54483088  0.24791841  0.30704919    -0.85610
O453        O  0.72829712  0.20997767  0.37056455    -0.87100
O454        O  0.70477404  0.40378584  0.30566978    -0.85680
O455        O  0.48308519  0.22582323  0.37029944    -0.85730
O456        O  0.59253382  0.19155937  0.40382936    -0.85450
O457        O  0.82188817  0.38820373  0.34228943    -0.85250
O458        O  0.70547550  0.24275315  0.30906836    -0.85620
O459        O  0.56400747  0.12991937  0.34147678    -0.85090
O460        O  0.75834075  0.33354960  0.30857435    -0.86150
O461        O  0.52221114  0.13657982  0.36754565    -0.85310
O462        O  0.61358143  0.36387311  0.30576488    -0.85710
O463        O  0.81553691  0.33943477  0.36858845    -0.85430
O464        O  0.68292022  0.22674202  0.40310542    -0.85080
O465        O  0.48841309  0.26910555  0.34276930    -0.85490
O466        O  0.58518736  0.19698077  0.30665672    -0.85780
O467        O  0.68216222  0.16884599  0.34387919    -0.87120
Zr468      Zr  0.58115750  0.31105997  0.33356645     2.83100
Zr469      Zr  0.72108929  0.28966775  0.37747321     2.83500
Zr470      Zr  0.73239174  0.37123565  0.33359425     2.84090
Zr471      Zr  0.56900324  0.23025210  0.37724400     2.83360
Zr472      Zr  0.63991603  0.21900352  0.33418907     2.84220
O473        O  0.63933355  0.21947330  0.36671680    -1.07690
O474        O  0.65120227  0.30022026  0.32291845    -1.07190
C475        C  0.55363840  0.21191723  0.29990793     1.07470
C476        C  0.71056987  0.17228724  0.35818078     1.10080
C477        C  0.65957564  0.39494723  0.29855278     1.07640
C478        C  0.46319625  0.24229921  0.35735814     1.08000
C479        C  0.63656531  0.19661122  0.41041035     1.07580
C480        C  0.84198463  0.37151851  0.35500964     1.07140
C481        C  0.74465526  0.28666101  0.30235378     1.07560
C482        C  0.52647377  0.11013201  0.35385038     1.07070
H483        H  0.74997797  0.28426402  0.34077366     0.33750
O484        O  0.72142975  0.28961587  0.34492562    -1.28790
H485        H  0.53484978  0.20118969  0.33999736     0.33770
O486        O  0.56876660  0.22936220  0.34459431    -1.30170
O487        O  0.40318384  0.80032879  0.70633949    -0.85610
O488        O  0.37659440  0.58419599  0.64065723    -0.85780
O489        O  0.48909463  0.71934632  0.67474067    -0.87450
O490        O  0.37849715  0.74459973  0.64134874    -0.86200
O491        O  0.28703476  0.70178860  0.63926710    -0.85790
O492        O  0.48069384  0.66690985  0.70010130    -0.87170
O493        O  0.42825306  0.67596807  0.64174642    -0.85640
O494        O  0.44928703  0.79665609  0.68099718    -0.85230
Zr495      Zr  0.40061670  0.70651890  0.66819049     2.84310
O496        O  0.32069496  0.63625276  0.65642867    -1.07210
O497        O  0.39728358  0.70366360  0.70062422    -1.07940
C498        C  0.44351959  0.82042437  0.69518706     1.07490
C499        C  0.41446415  0.63027863  0.63446594     1.07440
C500        C  0.50771191  0.69879954  0.68648498     1.10420
C501        C  0.33444365  0.73452578  0.63328228     1.08200
H502        H  0.41718396  0.61822536  0.67354364     0.33760
O503        O  0.38878871  0.62351254  0.67790756    -1.28160
H504        H  0.33514226  0.75014615  0.67358742     0.33430
O505        O  0.32906060  0.71592922  0.67804037    -1.29840
O506        O  0.22861732  0.46547613  0.67129148    -0.85610
O507        O  0.26148033  0.68361489  0.73680772    -0.87100
O508        O  0.39731825  0.54585848  0.70374388    -0.85680
O509        O  0.21424138  0.58596150  0.63892236    -0.85730
O510        O  0.23360260  0.71780592  0.67374941    -0.85450
O511        O  0.42322790  0.68288863  0.73681981    -0.85250
O512        O  0.25632688  0.51623395  0.73420809    -0.85620
O513        O  0.14777895  0.54984830  0.70266061    -0.85090
O514        O  0.34778661  0.55777316  0.73604309    -0.86150
O515        O  0.15571523  0.60075705  0.67684099    -0.85310
O516        O  0.34873886  0.50195067  0.67804593    -0.85710
O517        O  0.38195589  0.73270797  0.73781685    -0.85430
O518        O  0.28113895  0.76077735  0.69985451    -0.85080
O519        O  0.25711869  0.53783303  0.63757149    -0.85490
O520        O  0.18572208  0.46795629  0.69781815    -0.85780
O521        O  0.21098019  0.59180891  0.73665268    -0.87120
Zr522      Zr  0.30887727  0.55358207  0.66596844     2.83100
Zr523      Zr  0.32488502  0.71181232  0.71071794     2.83500
Zr524      Zr  0.38666774  0.62181468  0.71042559     2.84090
Zr525      Zr  0.24872485  0.64459821  0.66632566     2.83360
Zr526      Zr  0.23477845  0.55970406  0.70909779     2.84220
O527        O  0.24533602  0.64152378  0.69887305    -1.07690
O528        O  0.30650319  0.55155410  0.69857104    -1.07190
C529        C  0.18997980  0.44438170  0.68328641     1.07470
C530        C  0.22524295  0.63810657  0.74371575     1.10080
C531        C  0.37889454  0.50674837  0.69212341     1.07640
C532        C  0.22479678  0.55224512  0.63095164     1.08000
C533        C  0.25088772  0.75590504  0.68581069     1.07580
C534        C  0.41446461  0.71838134  0.74424421     1.07140
C535        C  0.30016090  0.52329014  0.74152443     1.07560
C536        C  0.12949631  0.57026006  0.69076822     1.07070
H537        H  0.31393882  0.62844722  0.73436371     0.33750
O538        O  0.31476324  0.62997488  0.72092979    -1.28790
H539        H  0.20338546  0.53576762  0.67130413     0.33770
O540        O  0.23705597  0.56278389  0.67641229    -1.30170
O541        O  0.36254320  0.57785027  0.13642139    -0.85610
O542        O  0.14472466  0.53954140  0.20270709    -0.85780
O543        O  0.22515785  0.45506077  0.17126297    -0.87450
O544        O  0.20086408  0.57037018  0.13892547    -0.86200
O545        O  0.24016289  0.66192112  0.13859203    -0.85790
O546        O  0.27798244  0.46242524  0.19633943    -0.87170
O547        O  0.14691462  0.49929460  0.17546345    -0.85640
O548        O  0.27129164  0.52356222  0.13706539    -0.85230
Zr549      Zr  0.23937309  0.54502702  0.16500629     2.84310
O550        O  0.22998583  0.61553098  0.17654167    -1.07210
O551        O  0.32127793  0.55420498  0.17485648    -1.07940
C552        C  0.31741276  0.54125617  0.12949037     1.07490
C553        C  0.12314882  0.50322640  0.18999440     1.07440
C554        C  0.24520792  0.43572218  0.18297185     1.10420
C555        C  0.20831596  0.61504142  0.13186344     1.08200
H556        H  0.21590295  0.51139768  0.20238536     0.33760
O557        O  0.24373992  0.54514452  0.19762681    -1.28160
H558        H  0.30880213  0.62710732  0.14074835     0.33430
O559        O  0.30963731  0.62667000  0.15417672    -1.29840
O560        O  0.26118358  0.67929308  0.23516790    -0.85610
O561        O  0.48094772  0.71039022  0.17053783    -0.87100
O562        O  0.26706410  0.51623418  0.23466472    -0.85680
O563        O  0.22381413  0.70846901  0.17337772    -0.85730
O564        O  0.35928969  0.73250920  0.13790092    -0.85450
O565        O  0.40354690  0.54732467  0.19992427    -0.85250
O566        O  0.41516599  0.68293896  0.23538809    -0.85620
O567        O  0.39379241  0.79684428  0.20081281    -0.85090
O568        O  0.38037528  0.59206328  0.23529868    -0.86150
O569        O  0.34459717  0.79137055  0.17487714    -0.85310
O570        O  0.21857447  0.55890155  0.23676948    -0.85710
O571        O  0.44145901  0.59232243  0.17268744    -0.85430
O572        O  0.41527441  0.69856748  0.13873092    -0.85080
O573        O  0.18714802  0.66246886  0.20049707    -0.85490
O574        O  0.35213715  0.73200897  0.23469903    -0.85780
O575        O  0.47758410  0.75383699  0.19676352    -0.87120
Zr576      Zr  0.23378497  0.61519183  0.20922891     2.83100
Zr577      Zr  0.39110867  0.63630042  0.16410398     2.83500
Zr578      Zr  0.32530876  0.55539865  0.20748278     2.84090
Zr579      Zr  0.29986863  0.69738897  0.16511928     2.83360
Zr580      Zr  0.38461595  0.70873575  0.20741603     2.84220
O581        O  0.38211460  0.70822185  0.17484936    -1.07690
O582        O  0.31581711  0.62632440  0.21834375    -1.07190
C583        C  0.30602344  0.71726920  0.24179395     1.07470
C584        C  0.50221625  0.74796480  0.18280745     1.10080
C585        C  0.23378895  0.52656039  0.24294613     1.07640
C586        C  0.18875037  0.69191990  0.18661987     1.08000
C587        C  0.39779224  0.72717286  0.13122908     1.07580
C588        C  0.43991607  0.56457595  0.18709411     1.07140
C589        C  0.40830923  0.63888219  0.24273740     1.07560
C590        C  0.37464186  0.81675547  0.18892449     1.07070
H591        H  0.42903523  0.64440496  0.20102831     0.33750
O592        O  0.39484898  0.63810714  0.19666239    -1.28790
H593        H  0.29652572  0.72436533  0.20242244     0.33770
O594        O  0.30220156  0.69656737  0.19765600    -1.30170
O595        O  0.93139460  0.01397254  0.56786141    -0.85610
O596        O  0.16186659  0.06519212  0.50696844    -0.85780
O597        O  0.09749532  0.02558350  0.56899175    -0.87450
O598        O  0.07639810  0.13857960  0.53439326    -0.86200
O599        O  0.02668111  0.13515468  0.50918595    -0.85790
O600        O  0.05475829  0.93432202  0.56988682    -0.87170
O601        O  0.15392052  0.10180349  0.53418241    -0.85640
O602        O  0.02257183  0.06812968  0.56932222    -0.85230
Zr603      Zr  0.06005731  0.04966909  0.54245398     2.84310
O604        O  0.06225618  0.05314417  0.50992546    -1.07210
O605        O  0.98961700  0.96706136  0.55251178    -1.07940
C606        C  0.97507628  0.05067875  0.57552145     1.07490
C607        C  0.18034526  0.10105589  0.51993622     1.07440
C608        C  0.08774659  0.98078286  0.57656469     1.10420
C609        C  0.05946746  0.16070620  0.52268254     1.08200
H610        H  0.10777204  0.98835370  0.53665080     0.33760
O611        O  0.07402231  0.98187463  0.53175743    -1.28160
H612        H  0.97280912  0.06595424  0.53590435     0.33430
O613        O  0.97887155  0.03831229  0.53114972    -1.29840
O614        O  0.05891219  0.92578783  0.47261259    -0.85610
O615        O  0.82190441  0.87804318  0.53208410    -0.87100
O616        O  0.08076232  0.88960461  0.53496608    -0.85680
O617        O  0.04382647  0.08069236  0.47234528    -0.85730
O618        O  0.90420704  0.05209687  0.50601631    -0.85450
O619        O  0.93694645  0.85746157  0.56758472    -0.85250
O620        O  0.91573517  0.80141404  0.50481070    -0.85620
O621        O  0.88772183  0.91309164  0.47090332    -0.85090
O622        O  0.96219600  0.80655843  0.53116670    -0.86150
O623        O  0.92025371  0.00398126  0.47206048    -0.85310
O624        O  0.12436363  0.93965092  0.50903375    -0.85710
O625        O  0.88305830  0.89435539  0.56711162    -0.85430
O626        O  0.86342964  0.00240154  0.53208454    -0.85080
O627        O  0.09672548  0.04279857  0.47204948    -0.85490
O628        O  0.96810608  0.86870250  0.47143770    -0.85780
O629        O  0.83180599  0.83660932  0.50643229    -0.87120
Zr630      Zr  0.07641729  0.98507884  0.49914095     2.83100
Zr631      Zr  0.90900847  0.95468071  0.54075792     2.83500
Zr632      Zr  0.00283175  0.89863817  0.54180187     2.84090
Zr633      Zr  0.98104348  0.04135776  0.49853139     2.83360
Zr634      Zr  0.92579234  0.88883303  0.49724599     2.84220
O635        O  0.91144326  0.95706992  0.50818458    -1.07690
O636        O  0.00654817  0.90189811  0.50917848    -1.07190
C637        C  0.01618340  0.88692321  0.46531062     1.07470
C638        C  0.80418613  0.84009876  0.51986568     1.10080
C639        C  0.11895609  0.90830465  0.52281648     1.07640
C640        C  0.08082619  0.07372856  0.46517768     1.08000
C641        C  0.86722815  0.03384141  0.51863659     1.07580
C642        C  0.89857238  0.86345280  0.57419276     1.07140
C643        C  0.93272395  0.78063102  0.51713611     1.07560
C644        C  0.89140749  0.95708888  0.46478434     1.07070
H645        H  0.89456562  0.85140926  0.53413104     0.33750
O646        O  0.92249980  0.88604386  0.52988383    -1.28790
H647        H  0.99578416  0.97340506  0.47416227     0.33770
O648        O  0.99512571  0.97279252  0.48760174    -1.30170
C649        C  0.00035708  0.13714573  0.91386295    -0.04460
C650        C  0.03368066  0.16941909  0.92846871    -0.01580
C651        C  0.03982978  0.14540272  0.94473474     0.03410
C652        C  0.00956816  0.08916752  0.94697844    -0.04460
C653        C  0.98382000  0.05737347  0.93131409    -0.01570
C654        C  0.97722574  0.08095741  0.91503240     0.03410
C655        C  0.06174416  0.22733069  0.92673270     0.38060
C656        C  0.97217204  0.00234323  0.93110238     0.38050
C657        C  0.94840238  0.04768956  0.89925847     0.36470
C658        C  0.07933740  0.17826040  0.95856022     0.36470
N659        N  0.92539407  0.02129699  0.88663959    -0.38350
N660        N  0.11105295  0.20440839  0.96954435    -0.38350
N661        N  0.96474358  0.95907018  0.93088655    -0.37790
N662        N  0.08416311  0.27353505  0.92535090    -0.37800
C663        C  0.81601124  0.21118003  0.85949778    -0.04460
C664        C  0.80708674  0.16310910  0.86825668    -0.01580
C665        C  0.85007608  0.15394786  0.87159852     0.03410
C666        C  0.90361921  0.19500873  0.86835502    -0.04460
C667        C  0.91237541  0.24344309  0.85994946    -0.01570
C668        C  0.86907315  0.24950222  0.85427603     0.03410
C669        C  0.75365077  0.12208535  0.87369354     0.38060
C670        C  0.96588878  0.28909214  0.85768165     0.38050
C671        C  0.88046422  0.29610311  0.84306184     0.36470
C672        C  0.83850435  0.10131246  0.87785739     0.36470
N673        N  0.89023644  0.33279332  0.83377259    -0.38350
N674        N  0.82901356  0.05921895  0.88279980    -0.38350
N675        N  0.00789420  0.32613631  0.85549487    -0.37790
N676        N  0.71131524  0.08925274  0.87826082    -0.37800
C677        C  0.29723096  0.42930500  0.78871216    -0.04460
C678        C  0.29298936  0.40932799  0.77055175    -0.01580
C679        C  0.29290989  0.43960744  0.75506649     0.03410
C680        C  0.29597241  0.48944658  0.75771463    -0.04460
C681        C  0.29763529  0.50815413  0.77591985    -0.01570
C682        C  0.29935826  0.47873052  0.79136468     0.03410
C683        C  0.28711954  0.35694402  0.76788912     0.38060
C684        C  0.29664322  0.55725444  0.77876704     0.38050
C685        C  0.30344032  0.49934135  0.81003828     0.36470
C686        C  0.28910906  0.41919747  0.73642411     0.36470
N687        N  0.30684213  0.51576798  0.82493762    -0.38350
N688        N  0.28607438  0.40266451  0.72156669    -0.38350
N689        N  0.29573361  0.59633623  0.78109465    -0.37790
N690        N  0.28209174  0.31496983  0.76583403    -0.37800
C691        C  0.47678047  0.36129304  0.84844281    -0.04460
C692        C  0.48358905  0.40862307  0.83979163    -0.01580
C693        C  0.43865851  0.41308192  0.83478589     0.03410
C694        C  0.38630118  0.36789315  0.83584899    -0.04460
C695        C  0.37991264  0.32029040  0.84415114    -0.01570
C696        C  0.42398573  0.31911909  0.85196561     0.03410
C697        C  0.53667554  0.45372361  0.83636600     0.38060
C698        C  0.32856805  0.27087807  0.84404517     0.38050
C699        C  0.41363905  0.27436129  0.86397637     0.36470
C700        C  0.44673370  0.46499911  0.82920723     0.36470
N701        N  0.40387352  0.23920815  0.87405281    -0.38350
N702        N  0.45328297  0.50651280  0.82485356    -0.38350
N703        N  0.28801768  0.23113740  0.84413043    -0.37790
N704        N  0.57877045  0.48986127  0.83340369    -0.37800
C705        C  0.09226216  0.24198243  0.85771613    -0.04460
C706        C  0.12186590  0.29733621  0.86174496    -0.01580
C707        C  0.17116896  0.33035881  0.85293137     0.03410
C708        C  0.19175179  0.30790823  0.84048919    -0.04460
C709        C  0.16246929  0.25247029  0.83658923    -0.01570
C710        C  0.11280801  0.21948309  0.84526297     0.03410
C711        C  0.10249382  0.31994744  0.87550810     0.38060
C712        C  0.18330949  0.22955991  0.82351635     0.38050
C713        C  0.08323327  0.16237099  0.84165644     0.36470
C714        C  0.20089127  0.38739780  0.85669168     0.36470
N715        N  0.05969737  0.11674584  0.83886490    -0.38350
N716        N  0.22451991  0.43293651  0.85963175    -0.38350
N717        N  0.19993540  0.21137993  0.81304703    -0.37790
N718        N  0.08721624  0.33789804  0.88657768    -0.37800
C719        C  0.13402922  0.61982295  0.07967967    -0.04460
C720        C  0.15813281  0.58787501  0.08155563    -0.01580
C721        C  0.17776046  0.58242179  0.09897269     0.03410
C722        C  0.17955325  0.61370004  0.11432368    -0.04460
C723        C  0.15820005  0.64798969  0.11217629    -0.01570
C724        C  0.13508411  0.65054224  0.09514023     0.03410
C725        C  0.16477754  0.56198803  0.06535786     0.38060
C726        C  0.15747899  0.67925387  0.12775808     0.38050
C727        C  0.11260550  0.68526926  0.09374816     0.36470
C728        C  0.19458155  0.54323724  0.10097389     0.36470
N729        N  0.09615494  0.71419428  0.09242395    -0.38350
N730        N  0.20602353  0.51041062  0.10234800    -0.38350
N731        N  0.15643007  0.70466963  0.13992678    -0.37790
N732        N  0.17030252  0.54150462  0.05245794    -0.37800
C733        C  0.05951090  0.69912930  0.03420163    -0.04460
C734        C  0.09736174  0.74182150  0.02306223    -0.01580
C735        C  0.08836004  0.78379452  0.01770077     0.03410
C736        C  0.04205856  0.78350026  0.02377271    -0.04460
C737        C  0.00291520  0.73928935  0.03395670    -0.01570
C738        C  0.01186352  0.69769051  0.03938121     0.03410
C739        C  0.14507189  0.74217125  0.01697443     0.38060
C740        C  0.95477250  0.73823825  0.04003608     0.38050
C741        C  0.97285845  0.65447952  0.05105851     0.36470
C742        C  0.12586837  0.82643868  0.00561638     0.36470
N743        N  0.94183098  0.62003791  0.06035366    -0.38350
N744        N  0.15559511  0.86016068  0.99580015    -0.38350
N745        N  0.91673575  0.73729585  0.04531954    -0.37790
N746        N  0.18317231  0.74243503  0.01212017    -0.37800
C747        C  0.88339317  0.21357090  0.01138565    -0.04460
C748        C  0.86139735  0.18052759  0.02729017    -0.01580
C749        C  0.87370673  0.13984492  0.03125854     0.03410
C750        C  0.90665117  0.13151118  0.01898485    -0.04460
C751        C  0.92800222  0.16471579  0.00320296    -0.01570
C752        C  0.91794027  0.20638626  0.99968905     0.03410
C753        C  0.82517913  0.18748217  0.03916913     0.38060
C754        C  0.96096977  0.15620936  0.99043311     0.38050
C755        C  0.94391325  0.24239133  0.98404261     0.36470
C756        C  0.85041207  0.10490684  0.04725884     0.36470
N757        N  0.96499792  0.27095772  0.97161510    -0.38350
N758        N  0.83162650  0.07665991  0.05994522    -0.38350
N759        N  0.98722892  0.14926346  0.98021135    -0.37790
N760        N  0.79607508  0.19293924  0.04860683    -0.37800
C761        C  0.81479881  0.28857787  0.96377162    -0.04460
C762        C  0.75936195  0.25577275  0.96141606    -0.01580
C763        C  0.73594958  0.25372880  0.94397583     0.03410
C764        C  0.76686146  0.28903753  0.92937543    -0.04460
C765        C  0.82241162  0.32190565  0.93194504    -0.01570
C766        C  0.84652505  0.31782201  0.94842556     0.03410
C767        C  0.72641528  0.22384484  0.97691055     0.38060
C768        C  0.85500019  0.36033405  0.91780425     0.38050
C769        C  0.90339104  0.33783274  0.94864313     0.36470
C770        C  0.68001691  0.21521082  0.94147697     0.36470
N771        N  0.94833839  0.35153208  0.94809370    -0.38350
N772        N  0.63563684  0.18245454  0.94024572    -0.38350
N773        N  0.88078376  0.39240715  0.90683377    -0.37790
N774        N  0.70015068  0.19833190  0.98924210    -0.37800
C775        C  0.92782952  0.40344213  0.01615009    -0.04460
C776        C  0.96602162  0.44707765  0.00531770    -0.01580
C777        C  0.00038756  0.49666762  0.01365995     0.03410
C778        C  0.99542815  0.50441280  0.03273542    -0.04460
C779        C  0.95636447  0.46167066  0.04354650    -0.01570
C780        C  0.92303726  0.41122439  0.03533423     0.03410
C781        C  0.97103214  0.44240499  0.98548604     0.38060
C782        C  0.94967292  0.46981441  0.06303095     0.38050
C783        C  0.88282583  0.36777612  0.04657613     0.36470
C784        C  0.04211539  0.53955638  0.00256697     0.36470
N785        N  0.85093527  0.33308268  0.05556991    -0.38350
N786        N  0.07517288  0.57364360  0.99370267    -0.38350
N787        N  0.94452557  0.47633883  0.07858707    -0.37790
N788        N  0.97662291  0.44250519  0.96956924    -0.37800
C789        C  0.05747796  0.72113088  0.17626445    -0.04460
C790        C  0.11115619  0.76380847  0.17478887    -0.01580
C791        C  0.15428403  0.75508743  0.17849984     0.03410
C792        C  0.14466767  0.70474030  0.18514042    -0.04460
C793        C  0.09134641  0.66458162  0.18900157    -0.01570
C794        C  0.04832525  0.67124357  0.18347082     0.03410
C795        C  0.12245418  0.81730646  0.16991995     0.38060
C796        C  0.07969647  0.61583712  0.19884589     0.38050
C797        C  0.99489827  0.62489281  0.18462963     0.36470
C798        C  0.20868826  0.79857784  0.17584945     0.36470
N799        N  0.95298404  0.58716128  0.18597940    -0.38350
N800        N  0.25199180  0.83336113  0.17363371    -0.38350
N801        N  0.06948582  0.57751114  0.20721696    -0.37790
N802        N  0.13156118  0.86004121  0.16606283    -0.37800
C803        C  0.96604188  0.77876902  0.12820131    -0.04460
C804        C  0.98291744  0.76582953  0.11168227    -0.01580
C805        C  0.98667235  0.79350346  0.09501521     0.03410
C806        C  0.96301618  0.82594280  0.09362002    -0.04460
C807        C  0.94263018  0.83604883  0.10995017    -0.01570
C808        C  0.94718762  0.81535686  0.12728927     0.03410
C809        C  0.99289397  0.72150459  0.11157207     0.38060
C810        C  0.92068101  0.87117579  0.10931642     0.38050
C811        C  0.93417951  0.83339095  0.14424169     0.36470
C812        C  0.02001679  0.79271300  0.08029130     0.36470
N813        N  0.92405504  0.84804334  0.15773691    -0.38350
N814        N  0.04980081  0.79393960  0.06939325    -0.38350
N815        N  0.90278159  0.89891979  0.10917534    -0.37790
N816        N  0.99883238  0.68483727  0.11183791    -0.37800
C817        C  0.65299788  0.46961128  0.24629793    -0.04460
C818        C  0.62189237  0.46741220  0.26177366    -0.01580
C819        C  0.62248587  0.44130485  0.27839587     0.03410
C820        C  0.65853620  0.42190535  0.28069347    -0.04460
C821        C  0.68857965  0.42321091  0.26510476    -0.01570
C822        C  0.68421803  0.44471730  0.24790166     0.03410
C823        C  0.58893977  0.49195290  0.26103415     0.38060
C824        C  0.72089763  0.39845127  0.26606017     0.38050
C825        C  0.71003835  0.43859226  0.23158099     0.36470
C826        C  0.58354609  0.43264215  0.29264280     0.36470
N827        N  0.73061015  0.43334496  0.21866133    -0.38350
N828        N  0.55080590  0.42481580  0.30340539    -0.38350
N829        N  0.74660763  0.37841446  0.26608652    -0.37790
N830        N  0.56144188  0.51016742  0.26104669    -0.37800
C831        C  0.48561003  0.55536763  0.19036182    -0.04460
C832        C  0.50327904  0.53192609  0.17698633    -0.01580
C833        C  0.54340415  0.51958791  0.18177107     0.03410
C834        C  0.56885003  0.53454764  0.19932080    -0.04460
C835        C  0.55621286  0.56440764  0.21148255    -0.01570
C836        C  0.51396692  0.57314358  0.20729021     0.03410
C837        C  0.48238321  0.52267651  0.15817656     0.38060
C838        C  0.59013718  0.59080547  0.22749359     0.38050
C839        C  0.50454459  0.60663860  0.21954940     0.36470
C840        C  0.55929181  0.49255844  0.16857695     0.36470
N841        N  0.50027953  0.63568682  0.22930059    -0.38350
N842        N  0.57204094  0.47098392  0.15805461    -0.38350
N843        N  0.61774050  0.61299954  0.23997609    -0.37790
N844        N  0.46627264  0.51569518  0.14306848    -0.37800
C845        C  0.76287613  0.60146007  0.19710409    -0.04460
C846        C  0.79017137  0.65678174  0.20103337    -0.01580
C847        C  0.84176565  0.69031813  0.19380773     0.03410
C848        C  0.86561546  0.66850654  0.18251108    -0.04460
C849        C  0.83728524  0.61350417  0.17800461    -0.01570
C850        C  0.78632313  0.57988632  0.18552815     0.03410
C851        C  0.76480053  0.67906502  0.21230432     0.38060
C852        C  0.85947390  0.59203265  0.16487105     0.38050
C853        C  0.75732091  0.52328945  0.18097272     0.36470
C854        C  0.86986833  0.74729611  0.19763278     0.36470
N855        N  0.73413507  0.47820754  0.17728592    -0.38350
N856        N  0.89221240  0.79279807  0.20064447    -0.38350
N857        N  0.87685551  0.57501233  0.15423597    -0.37790
N858        N  0.74425993  0.69672034  0.22119941    -0.37800
C859        C  0.33073501  0.81238670  0.58260922    -0.04460
C860        C  0.34570760  0.84101709  0.59949671    -0.01580
C861        C  0.34855918  0.81601486  0.61599480     0.03410
C862        C  0.33751648  0.76267519  0.61566325    -0.04460
C863        C  0.32506349  0.73482430  0.59860594    -0.01570
C864        C  0.32107348  0.75942784  0.58213838     0.03410
C865        C  0.35951855  0.89670895  0.59980819     0.38060
C866        C  0.31912277  0.68193241  0.59785328     0.38050
C867        C  0.30861264  0.73090521  0.56461361     0.36470
C868        C  0.36209210  0.84494357  0.63338580     0.36470
N869        N  0.29880259  0.70817981  0.55062859    -0.38350
N870        N  0.37251948  0.86801896  0.64727711    -0.38350
N871        N  0.31540787  0.64019062  0.59718643    -0.37790
N872        N  0.37131602  0.94136182  0.60009867    -0.37800
C873        C  0.24427995  0.87478581  0.53631635    -0.04460
C874        C  0.23668661  0.91126351  0.54690733    -0.01580
C875        C  0.19650416  0.92258702  0.54200651     0.03410
C876        C  0.16324632  0.89775759  0.52651995    -0.04460
C877        C  0.17343485  0.86442930  0.51506420    -0.01570
C878        C  0.21295563  0.85175482  0.52023761     0.03410
C879        C  0.27176834  0.93911819  0.56246631     0.38060
C880        C  0.14634928  0.84631220  0.49739651     0.38050
C881        C  0.22139228  0.81508576  0.50908584     0.36470
C882        C  0.19211333  0.96317182  0.55214046     0.36470
N883        N  0.22788541  0.78555986  0.50023470    -0.38350
N884        N  0.18935858  0.99611079  0.56017706    -0.38350
N885        N  0.12702440  0.83309851  0.48285084    -0.37790
N886        N  0.29972258  0.96190790  0.57479318    -0.37800
C887        C  0.63419166  0.11219379  0.46138038    -0.04460
C888        C  0.59156781  0.08737974  0.44845650    -0.01580
C889        C  0.58977504  0.11627530  0.43269420     0.03410
C890        C  0.63503984  0.16650186  0.42785117    -0.04460
C891        C  0.67961960  0.18835303  0.44017494    -0.01570
C892        C  0.67541264  0.16488684  0.45770376     0.03410
C893        C  0.54987418  0.03201763  0.45108315     0.38060
C894        C  0.73056593  0.23503149  0.43537681     0.38050
C895        C  0.70956412  0.19800929  0.47267295     0.36470
C896        C  0.54170460  0.09301358  0.42140797     0.36470
N897        N  0.73504855  0.22578816  0.48465960    -0.38350
N898        N  0.50316737  0.07431219  0.41249739    -0.38350
N899        N  0.77175421  0.27162877  0.43170186    -0.37790
N900        N  0.51659149  0.98781531  0.45310626    -0.37800
C901        C  0.73630662  0.06073111  0.50609873    -0.04460
C902        C  0.72778887  0.01046013  0.51201504    -0.01580
C903        C  0.76963436  0.00568016  0.51982078     0.03410
C904        C  0.82326597  0.04655231  0.51678742    -0.04460
C905        C  0.83289950  0.09633656  0.50957440    -0.01570
C906        C  0.78959159  0.10421843  0.50517994     0.03410
C907        C  0.67891419  0.96225374  0.50680267     0.38060
C908        C  0.88732666  0.14029816  0.50743405     0.38050
C909        C  0.80095023  0.15694422  0.49944761     0.36470
C910        C  0.75651053  0.95826458  0.53073022     0.36470
N911        N  0.81282034  0.19999512  0.49493034    -0.38350
N912        N  0.74591453  0.92147858  0.54008275    -0.38350
N913        N  0.93070007  0.17540195  0.50570544    -0.37790
N914        N  0.64103592  0.92408524  0.50165270    -0.37800
C915        C  0.43876098  0.93755336  0.53199439    -0.04460
C916        C  0.47496142  0.91886222  0.52999742    -0.01580
C917        C  0.52880880  0.95476910  0.52575381     0.03410
C918        C  0.54527801  0.00759848  0.51959454    -0.04460
C919        C  0.50917279  0.02670064  0.52181366    -0.01570
C920        C  0.45677057  0.99231465  0.52844380     0.03410
C921        C  0.45698059  0.86215943  0.53217783     0.38060
C922        C  0.52686438  0.08273619  0.51833472     0.38050
C923        C  0.42204190  0.01387454  0.53195844     0.36470
C924        C  0.56673205  0.93818822  0.53058767     0.36470
N925        N  0.39424826  0.03098132  0.53470490    -0.38350
N926        N  0.59463519  0.92349809  0.53616311    -0.38350
N927        N  0.54081204  0.12736201  0.51552066    -0.37790
N928        N  0.44277541  0.81707970  0.53390691    -0.37800
C929        C  0.22926448  0.89106544  0.67442096    -0.04460
C930        C  0.22488498  0.87254911  0.69291505    -0.01580
C931        C  0.23234754  0.82870641  0.69694708     0.03410
C932        C  0.23840851  0.79953413  0.68222809    -0.04460
C933        C  0.23831132  0.81645558  0.66362205    -0.01570
C934        C  0.24038292  0.86513432  0.66013895     0.03410
C935        C  0.21417615  0.89945894  0.70779030     0.38060
C936        C  0.23516916  0.78446708  0.64767965     0.38050
C937        C  0.26030427  0.89170774  0.64231147     0.36470
C938        C  0.23302921  0.81377542  0.71620934     0.36470
N939        N  0.27754176  0.91366941  0.62831998    -0.38350
N940        N  0.23395135  0.80253876  0.73164856    -0.38350
N941        N  0.23051131  0.75900346  0.63469123    -0.37790
N942        N  0.20569946  0.92103054  0.71965071    -0.37800
C943        C  0.16670407  0.97893278  0.62845530    -0.04460
C944        C  0.15045989  0.93733932  0.61510335    -0.01580
C945        C  0.12460854  0.93793598  0.59847846     0.03410
C946        C  0.11667297  0.98150834  0.59413686    -0.04460
C947        C  0.13473284  0.02398402  0.60706623    -0.01570
C948        C  0.15512734  0.02037253  0.62457744     0.03410
C949        C  0.15866243  0.89228277  0.61794275     0.38060
C950        C  0.13252342  0.07194836  0.60267738     0.38050
C951        C  0.16071610  0.05806120  0.63891761     0.36470
C952        C  0.10841487  0.89369263  0.58555182     0.36470
N953        N  0.16486610  0.08851118  0.65012493    -0.38350
N954        N  0.09568183  0.85811293  0.57549461    -0.38350
N955        N  0.13147762  0.11058609  0.59924968    -0.37790
N956        N  0.16194072  0.85416666  0.61944228    -0.37800
C957        C  0.41460650  0.37932646  0.70344981    -0.04460
C958        C  0.40941171  0.39297370  0.68485567    -0.01580
C959        C  0.39412331  0.43149593  0.68116810     0.03410
C960        C  0.39321642  0.46402250  0.69572523    -0.04460
C961        C  0.40598885  0.45491948  0.71408121    -0.01570
C962        C  0.41013192  0.40944084  0.71805686     0.03410
C963        C  0.42134673  0.36884736  0.66933072     0.38060
C964        C  0.41472954  0.49118577  0.72935957     0.38050
C965        C  0.40689632  0.39269927  0.73737520     0.36470
C966        C  0.37997809  0.43723372  0.66224515     0.36470
N967        N  0.40454792  0.37970459  0.75278099    -0.38350
N968        N  0.36779726  0.44063052  0.64715340    -0.38350
N969        N  0.42295308  0.51974728  0.74174815    -0.37790
N970        N  0.43099601  0.34985669  0.65691308    -0.37800
C971        C  0.48589303  0.29116762  0.74595688    -0.04460
C972        C  0.53865776  0.33148102  0.75005511    -0.01580
C973        C  0.56086725  0.33345419  0.76775247     0.03410
C974        C  0.53226490  0.29245995  0.78116358    -0.04460
C975        C  0.48030447  0.25045753  0.77658828    -0.01570
C976        C  0.45637561  0.25137344  0.75955865     0.03410
C977        C  0.57101692  0.37025482  0.73584160     0.38060
C978        C  0.45112730  0.20542774  0.78915131     0.38050
C979        C  0.40049454  0.21204946  0.75640982     0.36470
C980        C  0.61414137  0.37730752  0.77159811     0.36470
N981        N  0.35596635  0.18074996  0.75392495    -0.38350
N982        N  0.65637153  0.41343307  0.77418375    -0.38350
N983        N  0.42824594  0.16851558  0.79879447    -0.37790
N984        N  0.59686798  0.40116248  0.72453794    -0.37800
C985        C  0.36785265  0.18871675  0.69309927    -0.04460
C986        C  0.39259908  0.16584231  0.68271501    -0.01580
C987        C  0.36128388  0.11549080  0.67425015     0.03410
C988        C  0.30532362  0.08831583  0.67603202    -0.04460
C989        C  0.28065770  0.11070908  0.68662781    -0.01570
C990        C  0.31178170  0.16080926  0.69512207     0.03410
C991        C  0.45017892  0.19433110  0.68060344     0.38060
C992        C  0.22322079  0.08113355  0.68935388     0.38050
C993        C  0.28612732  0.18274773  0.70645746     0.36470
C994        C  0.38643672  0.09141527  0.66382037     0.36470
N995        N  0.26571890  0.20034320  0.71545450    -0.38350
N996        N  0.40640887  0.07197558  0.65557330    -0.38350
N997        N  0.17748567  0.05734948  0.69159881    -0.37790
N998        N  0.49613184  0.21705784  0.67897775    -0.37800
C999        C  0.71800124  0.12592782  0.36203199    -0.04460
C1000       C  0.75085587  0.11381725  0.35103628    -0.01580
C1001       C  0.75983899  0.07197342  0.35648849     0.03410
C1002       C  0.73316498  0.03988098  0.37211316    -0.04460
C1003       C  0.69590079  0.04823663  0.38177044    -0.01570
C1004       C  0.68809831  0.09073695  0.37661332     0.03410
C1005       C  0.77323301  0.14173165  0.33367367     0.38060
C1006       C  0.66322984  0.01123377  0.39632399     0.38050
C1007       C  0.64363409  0.09342926  0.38436254     0.36470
C1008       C  0.79621295  0.06160196  0.34597235     0.36470
N1009       N  0.60628652  0.09377981  0.38961451    -0.38350
N1010       N  0.82532652  0.05342267  0.33760611    -0.38350
N1011       N  0.63646827  0.98161154  0.40777747    -0.37790
N1012       N  0.79210642  0.16343522  0.31978233    -0.37800
C1013       C  0.80202091  0.95353169  0.41600036    -0.04460
C1014       C  0.84786695  0.94887257  0.41419486    -0.01580
C1015       C  0.87548056  0.94742316  0.43018609     0.03410
C1016       C  0.85968348  0.95399007  0.44802893    -0.04460
C1017       C  0.81498359  0.96061009  0.44970740    -0.01570
C1018       C  0.78544074  0.95909439  0.43385365     0.03410
C1019       C  0.86816434  0.94810835  0.39585192     0.38060
C1020       C  0.79896466  0.96857904  0.46780110     0.38050
C1021       C  0.73747370  0.96230667  0.43602873     0.36470
C1022       C  0.92073584  0.94008480  0.42813707     0.36470
N1023       N  0.69918145  0.96465258  0.43804560    -0.38350
N1024       N  0.95649013  0.93365873  0.42608687    -0.38350
N1025       N  0.78586139  0.97527181  0.48217736    -0.37790
N1026       N  0.88523274  0.94847439  0.38129291    -0.37800
C1027       C  0.58347025  0.47464110  0.34821295    -0.04460
C1028       C  0.61362952  0.51055786  0.33374658    -0.01580
C1029       C  0.60287406  0.55081000  0.32792385     0.03410
C1030       C  0.56447787  0.55796883  0.33737256    -0.04460
C1031       C  0.53765256  0.52522766  0.35287905    -0.01570
C1032       C  0.54732344  0.48383196  0.35835324     0.03410
C1033       C  0.65828052  0.50851731  0.32564184     0.38060
C1034       C  0.50010126  0.53428954  0.36321800     0.38050
C1035       C  0.52222046  0.45323077  0.37501217     0.36470
C1036       C  0.63214207  0.58565988  0.31242121     0.36470
N1037       N  0.50232226  0.43116672  0.38872757    -0.38350
N1038       N  0.65521687  0.61332562  0.30000164    -0.38350
N1039       N  0.47025733  0.54162790  0.37148029    -0.37790
N1040       N  0.69458216  0.50804582  0.31926484    -0.37800
C1041       C  0.49375438  0.64507743  0.29364048    -0.04460
C1042       C  0.44103144  0.60271671  0.29071984    -0.01580
C1043       C  0.41372021  0.59988662  0.27406245     0.03410
C1044       C  0.43651187  0.64233634  0.26079022    -0.04460
C1045       C  0.48830819  0.68662172  0.26439814    -0.01570
C1046       C  0.51756242  0.68644471  0.28014852     0.03410
C1047       C  0.41407302  0.56217612  0.30505989     0.38060
C1048       C  0.51370829  0.73117732  0.25135442     0.38050
C1049       C  0.57337817  0.72766413  0.28188033     0.36470
C1050       C  0.36251533  0.55210662  0.27079592     0.36470
N1051       N  0.61790187  0.76039074  0.28322119    -0.38350
N1052       N  0.32255164  0.51262209  0.26858475    -0.38350
N1053       N  0.53420733  0.76667943  0.24098122    -0.37790
N1054       N  0.39247192  0.52991159  0.31647620    -0.37800
C1055       C  0.61190114  0.74711633  0.34722765    -0.04460
C1056       C  0.66803408  0.77014244  0.34778271    -0.01580
C1057       C  0.70019332  0.81988545  0.35649156     0.03410
C1058       C  0.67669581  0.84734716  0.36462451    -0.04460
C1059       C  0.62062397  0.82470430  0.36386869    -0.01570
C1060       C  0.58836546  0.77472816  0.35524518     0.03410
C1061       C  0.69314189  0.74352810  0.33886216     0.38060
C1062       C  0.59585024  0.85238902  0.37220450     0.38050
C1063       C  0.53082096  0.75135629  0.35491102     0.36470
C1064       C  0.75774498  0.84348946  0.35648755     0.36470
N1065       N  0.48495381  0.73285860  0.35457027    -0.38350
N1066       N  0.80356236  0.86173427  0.35633549    -0.38350
N1067       N  0.57608628  0.87461046  0.37872022    -0.37790
N1068       N  0.71313094  0.72221644  0.33182495    -0.37800
C1069       C  0.81387491  0.97560737  0.12770671    -0.04460
C1070       C  0.78333797  0.95042464  0.11159215    -0.01580
C1071       C  0.80848858  0.94841282  0.09510135     0.03410
C1072       C  0.86475983  0.97529250  0.09381522    -0.04460
C1073       C  0.89548079  0.00313864  0.10957745    -0.01570
C1074       C  0.87026662  0.00157332  0.12656557     0.03410
C1075       C  0.72578857  0.92759158  0.11162665     0.38060
C1076       C  0.95332685  0.03119307  0.10878130     0.38050
C1077       C  0.90296036  0.02476815  0.14299744     0.36470
C1078       C  0.77560065  0.91840655  0.07948808     0.36470
N1079       N  0.93029474  0.04344973  0.15582655    -0.38350
N1080       N  0.74779024  0.89317336  0.06749977    -0.38350
N1081       N  0.99947975  0.05401554  0.10844259    -0.37790
N1082       N  0.67992164  0.90915574  0.11151327    -0.37800
C1083       C  0.55726606  0.79225921  0.17893251    -0.04460
C1084       C  0.56335881  0.83424524  0.16721660    -0.01580
C1085       C  0.61426236  0.87821463  0.16344047     0.03410
C1086       C  0.66000913  0.88060398  0.17132699    -0.04460
C1087       C  0.65450918  0.83729913  0.18224309    -0.01570
C1088       C  0.60310489  0.79300097  0.18599906     0.03410
C1089       C  0.51678275  0.83078579  0.15845455     0.38060
C1090       C  0.70172180  0.83809724  0.18936282     0.38050
C1091       C  0.59791531  0.74772627  0.19645500     0.36470
C1092       C  0.61961899  0.92013511  0.15085958     0.36470
N1093       N  0.59542115  0.71194673  0.20462137    -0.38350
N1094       N  0.62366416  0.95308960  0.14064275    -0.38350
N1095       N  0.73940629  0.83856332  0.19496506    -0.37790
N1096       N  0.47885572  0.82628373  0.15146297    -0.37800
C1097       C  0.82418071  0.28041041  0.25174951    -0.04460
C1098       C  0.79640095  0.23398312  0.26311456    -0.01580
C1099       C  0.76772514  0.23456703  0.27891210     0.03410
C1100       C  0.77596310  0.28401367  0.28601664    -0.04460
C1101       C  0.81398804  0.33172379  0.27668897    -0.01570
C1102       C  0.83035063  0.32910495  0.25853840     0.03410
C1103       C  0.79890929  0.18607832  0.25926720     0.38060
C1104       C  0.83788130  0.38408196  0.28542403     0.38050
C1105       C  0.85011919  0.37629527  0.24670227     0.36470
C1106       C  0.73041379  0.18381418  0.28758991     0.36470
N1107       N  0.86541064  0.41388893  0.23730331    -0.38350
N1108       N  0.70015810  0.14302346  0.29423173    -0.38350
N1109       N  0.85729563  0.42593059  0.29227063    -0.37790
N1110       N  0.80113607  0.14794155  0.25632794    -0.37800
C1111       C  0.96989538  0.36889964  0.20425046    -0.04460
C1112       C  0.01729094  0.37353117  0.21134859    -0.01580
C1113       C  0.06672922  0.41682150  0.20591683     0.03410
C1114       C  0.06960193  0.45734150  0.19415613    -0.04460
C1115       C  0.02237608  0.45298835  0.18692037    -0.01570
C1116       C  0.97234215  0.40865177  0.19200570     0.03410
C1117       C  0.01538823  0.33411412  0.22442693     0.38060
C1118       C  0.02535169  0.49340617  0.17414435     0.38050
C1119       C  0.92343495  0.40451442  0.18506287     0.36470
C1120       C  0.11521952  0.41775313  0.21119066     0.36470
N1121       N  0.88434695  0.40128999  0.17959667    -0.38350
N1122       N  0.15442717  0.41807051  0.21422737    -0.38350
N1123       N  0.02770893  0.52563125  0.16391503    -0.37790
N1124       N  0.01431411  0.30334966  0.23506128    -0.37800
C1125       C  0.82654139  0.17875705  0.19567418    -0.04460
C1126       C  0.77456124  0.14984036  0.18811972    -0.01580
C1127       C  0.75612144  0.09884348  0.18017547     0.03410
C1128       C  0.78942419  0.07619912  0.17987773    -0.04460
C1129       C  0.84023478  0.10394091  0.18832583    -0.01570
C1130       C  0.85921539  0.15536622  0.19578366     0.03410
C1131       C  0.74030024  0.17292285  0.18826619     0.38060
C1132       C  0.87171489  0.07807643  0.19051605     0.38050
C1133       C  0.91217119  0.18342131  0.20398649     0.36470
C1134       C  0.70272492  0.06982251  0.17244203     0.36470
N1135       N  0.95467131  0.20536183  0.21030337    -0.38350
N1136       N  0.65973026  0.04705764  0.16655964    -0.38350
N1137       N  0.89666090  0.05747597  0.19278097    -0.37790
N1138       N  0.71289981  0.19125456  0.18846859    -0.37800
C1139       C  0.99953585  0.40443679  0.33960391    -0.04460
C1140       C  0.99458865  0.44376285  0.34962642    -0.01580
C1141       C  0.94351626  0.43319907  0.35568273     0.03410
C1142       C  0.89773135  0.38320357  0.35191000    -0.04460
C1143       C  0.90426644  0.34308925  0.34361141    -0.01570
C1144       C  0.95345718  0.35464408  0.33610462     0.03410
C1145       C  0.04180488  0.49473598  0.35365021     0.38060
C1146       C  0.86232207  0.28828020  0.34552109     0.38050
C1147       C  0.95580399  0.31600633  0.32397301     0.36470
C1148       C  0.93873784  0.47047418  0.36770833     0.36470
N1149       N  0.95690281  0.28575328  0.31378204    -0.38350
N1150       N  0.93478692  0.49932460  0.37778990    -0.38350
N1151       N  0.82931462  0.24500941  0.34876784    -0.37790
N1152       N  0.07957395  0.53555453  0.35676318    -0.37800
C1153       C  0.15111600  0.45823435  0.29428868    -0.04460
C1154       C  0.18999102  0.51316139  0.29328409    -0.01580
C1155       C  0.22051734  0.53451508  0.27693135     0.03410
C1156       C  0.21179240  0.50136978  0.26140943    -0.04460
C1157       C  0.17948507  0.44540453  0.26364710    -0.01570
C1158       C  0.14660718  0.42422679  0.27947943     0.03410
C1159       C  0.20034296  0.54690948  0.30941213     0.38060
C1160       C  0.18602177  0.40943783  0.25150642     0.38050
C1161       C  0.10862271  0.36715392  0.28067220     0.36470
C1162       C  0.26625575  0.58842208  0.27690342     0.36470
N1163       N  0.07807133  0.32172234  0.28161519    -0.38350
N1164       N  0.30393126  0.63068338  0.27697515    -0.38350
N1165       N  0.19224462  0.37969513  0.24266810    -0.37790
N1166       N  0.20857816  0.57332542  0.32243273    -0.37800
C1167       C  0.15349949  0.14781253  0.41198325    -0.04460
C1168       C  0.09779092  0.12460407  0.41493178    -0.01580
C1169       C  0.07515938  0.10487387  0.43266531     0.03410
C1170       C  0.10643732  0.10187372  0.44728583    -0.04460
C1171       C  0.16130312  0.12087923  0.44389470    -0.01570
C1172       C  0.18496498  0.14587797  0.42681658     0.03410
C1173       C  0.06231892  0.11735524  0.39953640     0.38060
C1174       C  0.19416984  0.11411244  0.45770944     0.38050
C1175       C  0.24210637  0.16923166  0.42476184     0.36470
C1176       C  0.01880764  0.08572169  0.43540872     0.36470
N1177       N  0.28745199  0.18647344  0.42291783    -0.38350
N1178       N  0.97404606  0.07149965  0.43739971    -0.38350
N1179       N  0.22090487  0.10806103  0.46828178    -0.37790
N1180       N  0.03245528  0.11015412  0.38764753    -0.37800
C1181       C  0.40828330  0.23327061  0.36016565    -0.04460
C1182       C  0.39858296  0.25760083  0.37543649    -0.01580
C1183       C  0.34720066  0.24961404  0.37863391     0.03410
C1184       C  0.30444964  0.21643288  0.36670817    -0.04460
C1185       C  0.31467181  0.19543475  0.35061498    -0.01570
C1186       C  0.36686382  0.20529408  0.34704352     0.03410
C1187       C  0.44275279  0.29533186  0.38679932     0.38060
C1188       C  0.27177785  0.16483081  0.33755320     0.38050
C1189       C  0.37841019  0.19019275  0.32927735     0.36470
C1190       C  0.33894451  0.27806573  0.39363852     0.36470
N1191       N  0.38696005  0.17974095  0.31466784    -0.38350
N1192       N  0.33243054  0.30107339  0.40549393    -0.38350
N1193       N  0.23755842  0.14048800  0.32710527    -0.37790
N1194       N  0.47816027  0.32595658  0.39572685    -0.37800
C1195       C  0.13397673  0.34592470  0.34897910    -0.04460
C1196       C  0.18752770  0.36876027  0.35513112    -0.01580
C1197       C  0.20659875  0.33576805  0.36215738     0.03410
C1198       C  0.17291187  0.27953073  0.36242668    -0.04460
C1199       C  0.12026886  0.25673062  0.35560120    -0.01570
C1200       C  0.10006978  0.28969168  0.34981690     0.03410
C1201       C  0.22305089  0.42637297  0.35432205     0.38060
C1202       C  0.08814114  0.19920927  0.35301537     0.38050
C1203       C  0.04432687  0.26482154  0.34460625     0.36470
C1204       C  0.26100205  0.35972989  0.36896300     0.36470
N1205       N  0.99929994  0.24314601  0.34107008    -0.38350
N1206       N  0.30451569  0.37875859  0.37426898    -0.38350
N1207       N  0.06276226  0.15363369  0.35031244    -0.37790
N1208       N  0.25145979  0.47228526  0.35352530    -0.37800
C1209       C  0.63615388  0.87209383  0.03665433    -0.04460
C1210       C  0.67750619  0.92420014  0.03174899    -0.01580
C1211       C  0.72659833  0.93248412  0.02506679     0.03410
C1212       C  0.73795862  0.89031608  0.02545185    -0.04460
C1213       C  0.69712419  0.83831003  0.03059760    -0.01570
C1214       C  0.64625796  0.82907525  0.03583620     0.03410
C1215       C  0.67074453  0.97029588  0.03426736     0.38060
C1216       C  0.70713422  0.79389540  0.03027339     0.38050
C1217       C  0.60483898  0.77489645  0.04015813     0.36470
C1218       C  0.76457830  0.98470416  0.01756837     0.36470
N1219       N  0.57352981  0.73079321  0.04345458    -0.38350
N1220       N  0.79289046  0.02622053  0.01103440    -0.38350
N1221       N  0.71503006  0.75845980  0.03010984    -0.37790
N1222       N  0.66574474  0.00721891  0.03624029    -0.37800
C1223       C  0.42452144  0.75515419  0.11347225    -0.04460
C1224       C  0.44715023  0.73269624  0.10152251    -0.01580
C1225       C  0.46734155  0.75579587  0.08405959     0.03410
C1226       C  0.47688889  0.80739371  0.07982360    -0.04460
C1227       C  0.45693987  0.83161854  0.09201407    -0.01570
C1228       C  0.42778985  0.80397177  0.10805579     0.03410
C1229       C  0.44986489  0.68537282  0.10658651     0.38060
C1230       C  0.46558340  0.88477116  0.08824070     0.38050
C1231       C  0.40208151  0.82673735  0.11893435     0.36470
C1232       C  0.47162688  0.72319348  0.06968474     0.36470
N1233       N  0.38087872  0.84460470  0.12735301    -0.38350
N1234       N  0.47185232  0.69524725  0.05829277    -0.38350
N1235       N  0.47115383  0.92679018  0.08554521    -0.37790
N1236       N  0.45328308  0.64827148  0.11042405    -0.37800
C1237       C  0.46325409  0.09064644  0.95505605    -0.04460
C1238       C  0.49016246  0.14699421  0.95592044    -0.01580
C1239       C  0.52056956  0.17774687  0.94066953     0.03410
C1240       C  0.53024755  0.15277336  0.92551441    -0.04460
C1241       C  0.51115294  0.09712619  0.92647853    -0.01570
C1242       C  0.47311930  0.06575234  0.94000847     0.03410
C1243       C  0.49144705  0.17354983  0.97316062     0.38060
C1244       C  0.53285402  0.07226365  0.91465518     0.38050
C1245       C  0.44390545  0.00793895  0.93824006     0.36470
C1246       C  0.54607323  0.23551162  0.94163986     0.36470
N1247       N  0.42021070  0.96196641  0.93629782    -0.38350
N1248       N  0.56589765  0.28143919  0.94303812    -0.38350
N1249       N  0.55036660  0.05222518  0.90541306    -0.37790
N1250       N  0.49459644  0.19527488  0.98698567    -0.37800
C1251       C  0.31832278  0.03390640  0.00351749    -0.04460
C1252       C  0.27752910  0.98622874  0.01194283    -0.01580
C1253       C  0.23257148  0.98484770  0.01985264     0.03410
C1254       C  0.22245913  0.02726701  0.01648613    -0.04460
C1255       C  0.26253421  0.07460787  0.00779750    -0.01570
C1256       C  0.31129284  0.07897777  0.00241241     0.03410
C1257       C  0.27926002  0.93685768  0.01148674     0.38060
C1258       C  0.25417036  0.11937427  0.00427361     0.38050
C1259       C  0.35377553  0.13053672  0.99592044     0.36470
C1260       C  0.19686948  0.93898462  0.03126078     0.36470
N1261       N  0.38622194  0.17248073  0.99078899    -0.38350
N1262       N  0.16950892  0.90291211  0.04072479    -0.38350
N1263       N  0.24789536  0.15510471  0.00107602    -0.37790
N1264       N  0.28033674  0.89739139  0.01112615    -0.37800
C1265       C  0.49505693  0.91638572  0.02413504    -0.04460
C1266       C  0.46656866  0.89887853  0.00733902    -0.01580
C1267       C  0.44541249  0.92843360  0.99917087     0.03410
C1268       C  0.45416366  0.97633206  0.00757833    -0.04460
C1269       C  0.48427693  0.99473133  0.02407895    -0.01570
C1270       C  0.50529638  0.96506770  0.03223885     0.03410
C1271       C  0.45927488  0.85064439  0.99849978     0.38060
C1272       C  0.49384188  0.04423626  0.03256633     0.38050
C1273       C  0.53896220  0.98545452  0.04863409     0.36470
C1274       C  0.41277590  0.90825465  0.98255751     0.36470
N1275       N  0.56629693  0.00206178  0.06158068    -0.38350
N1276       N  0.38627798  0.89132342  0.96944198    -0.38350
N1277       N  0.50112022  0.08354580  0.03937023    -0.37790
N1278       N  0.45402597  0.81249643  0.99136994    -0.37800
C1279       C  0.50320544  0.63452124  0.58549251    -0.04460
C1280       C  0.50194795  0.60490435  0.60137467    -0.01580
C1281       C  0.47099395  0.60143349  0.61700453     0.03410
C1282       C  0.44556136  0.63207648  0.61767934    -0.04460
C1283       C  0.45506856  0.66892424  0.60295778    -0.01570
C1284       C  0.48031679  0.66729132  0.58645863     0.03410
C1285       C  0.53710848  0.58301543  0.60245923     0.38060
C1286       C  0.44392084  0.71206012  0.60515326     0.38050
C1287       C  0.48301856  0.69977210  0.57054259     0.36470
C1288       C  0.47001798  0.57050489  0.63306648     0.36470
N1289       N  0.48489674  0.72565990  0.55789309    -0.38350
N1290       N  0.47040700  0.54606792  0.64579838    -0.38350
N1291       N  0.43835765  0.74871043  0.60678355    -0.37790
N1292       N  0.56670170  0.56749191  0.60393258    -0.37800
C1293       C  0.65028411  0.71407854  0.53773490    -0.04460
C1294       C  0.69525887  0.70763763  0.53873916    -0.01580
C1295       C  0.74395814  0.74641600  0.53084963     0.03410
C1296       C  0.74960800  0.79390606  0.52311478    -0.04460
C1297       C  0.70386738  0.79847904  0.52079992    -0.01570
C1298       C  0.65434654  0.75910279  0.52835223     0.03410
C1299       C  0.69160810  0.66113135  0.54805665     0.38060
C1300       C  0.70643501  0.83959690  0.50860376     0.38050
C1301       C  0.60747986  0.76423262  0.52606132     0.36470
C1302       C  0.78665189  0.73488428  0.52928223     0.36470
N1303       N  0.57017796  0.76852126  0.52420657    -0.38350
N1304       N  0.81872546  0.72290696  0.52744791    -0.38350
N1305       N  0.70788596  0.87110368  0.49827127    -0.37790
N1306       N  0.68868575  0.62412341  0.55550244    -0.37800
C1307       C  0.23463582  0.14777911  0.51710414    -0.04460
C1308       C  0.27846711  0.15658113  0.52830306    -0.01580
C1309       C  0.33051549  0.19809632  0.52374400     0.03410
C1310       C  0.33849787  0.23197324  0.50841701    -0.04460
C1311       C  0.29411497  0.22604853  0.49824790    -0.01570
C1312       C  0.24231688  0.18485937  0.50285836     0.03410
C1313       C  0.27017117  0.12627701  0.54528214     0.38060
C1314       C  0.30171373  0.26308228  0.48322241     0.38050
C1315       C  0.19651947  0.18314478  0.49390888     0.36470
C1316       C  0.37577374  0.20677394  0.53501276     0.36470
N1317       N  0.16019731  0.18262203  0.48697255    -0.38350
N1318       N  0.41188170  0.21373329  0.54401335    -0.38350
N1319       N  0.30790655  0.29266329  0.47125404    -0.37790
N1320       N  0.26557579  0.10481777  0.55937217    -0.37800
C1321       C  0.49393517  0.31409131  0.46489851    -0.04460
C1322       C  0.54977236  0.34701180  0.46217754    -0.01580
C1323       C  0.57290578  0.34931873  0.44462710     0.03410
C1324       C  0.54244984  0.31265374  0.43039628    -0.04460
C1325       C  0.48791032  0.27492190  0.43407668    -0.01570
C1326       C  0.46319178  0.27891642  0.45034768     0.03410
C1327       C  0.58427033  0.37698090  0.47760571     0.38060
C1328       C  0.45600220  0.23159308  0.42123968     0.38050
C1329       C  0.40547630  0.24757836  0.45161785     0.36470
C1330       C  0.62834500  0.38948604  0.44156268     0.36470
N1331       N  0.35956812  0.22229987  0.45305061    -0.38350
N1332       N  0.67224125  0.42287919  0.43937080    -0.38350
N1333       N  0.43019620  0.19640985  0.41130714    -0.37790
N1334       N  0.61196023  0.40068193  0.48989228    -0.37800
C1335       C  0.47134417  0.42554709  0.51394100    -0.04460
C1336       C  0.48508444  0.43046969  0.53300047    -0.01580
C1337       C  0.50221764  0.47916780  0.54228182     0.03410
C1338       C  0.50608013  0.52374050  0.53260406    -0.04460
C1339       C  0.49196550  0.51865616  0.51351510    -0.01570
C1340       C  0.47475287  0.46974831  0.50421853     0.03410
C1341       C  0.48314033  0.38568685  0.54304306     0.38060
C1342       C  0.49439677  0.56352607  0.50345379     0.38050
C1343       C  0.45971750  0.46466752  0.48472776     0.36470
C1344       C  0.51748566  0.48312624  0.56168497     0.36470
N1345       N  0.44794178  0.46056286  0.46915654    -0.38350
N1346       N  0.52896117  0.48411816  0.57716598    -0.38350
N1347       N  0.49659733  0.59940453  0.49541194    -0.37790
N1348       N  0.48144505  0.35004943  0.55108998    -0.37800
C1349       C  0.82658443  0.48984589  0.75189773    -0.04460
C1350       C  0.81261538  0.51472635  0.76591840    -0.01580
C1351       C  0.78264678  0.48520760  0.78159534     0.03410
C1352       C  0.77056437  0.43158028  0.78446427    -0.04460
C1353       C  0.78490175  0.40692086  0.77035670    -0.01570
C1354       C  0.81132384  0.43536728  0.75405959     0.03410
C1355       C  0.83023633  0.57139557  0.76452772     0.38060
C1356       C  0.77066852  0.35121287  0.77191188     0.38050
C1357       C  0.82088288  0.40748629  0.73916823     0.36470
C1358       C  0.76352664  0.51042360  0.79437847     0.36470
N1359       N  0.82822217  0.38487935  0.72738170    -0.38350
N1360       N  0.74783537  0.53078307  0.80429218    -0.38350
N1361       N  0.76040304  0.30705470  0.77269106    -0.37790
N1362       N  0.84428325  0.61656505  0.76341838    -0.37800
C1363       C  0.97810520  0.55289332  0.70625528    -0.04460
C1364       C  0.97914086  0.51087884  0.69671606    -0.01580
C1365       C  0.02844916  0.51589585  0.69152744     0.03410
C1366       C  0.07666706  0.56400387  0.69503664    -0.04460
C1367       C  0.07532675  0.60559077  0.70480152    -0.01570
C1368       C  0.02641475  0.59973417  0.71062857     0.03410
C1369       C  0.92949315  0.46236086  0.69237498     0.38060
C1370       C  0.12471077  0.65246254  0.71047449     0.38050
C1371       C  0.02598596  0.64066319  0.72208980     0.36470
C1372       C  0.02930520  0.47070419  0.68338407     0.36470
N1373       N  0.02591194  0.67296954  0.73148923    -0.38350
N1374       N  0.02849302  0.43343007  0.67724404    -0.38350
N1375       N  0.16392524  0.68923992  0.71547911    -0.37790
N1376       N  0.88997264  0.42363700  0.68880671    -0.37800
C1377       C  0.56223666  0.70766227  0.68252971    -0.04460
C1378       C  0.60708340  0.75949735  0.67961735    -0.01580
C1379       C  0.65705402  0.76559112  0.67443458     0.03410
C1380       C  0.66065910  0.72027418  0.66946882    -0.04460
C1381       C  0.61422107  0.66955394  0.67010587    -0.01570
C1382       C  0.56768091  0.66285819  0.67853732     0.03410
C1383       C  0.60231327  0.80668984  0.68156307     0.38060
C1384       C  0.61189955  0.62537397  0.65986762     0.38050
C1385       C  0.52607804  0.60910347  0.68296220     0.36470
C1386       C  0.70427923  0.81839383  0.67415228     0.36470
N1387       N  0.49556290  0.56521606  0.68673368    -0.38350
N1388       N  0.74158002  0.86088341  0.67418058    -0.38350
N1389       N  0.60846801  0.59074126  0.65086925    -0.37790
N1390       N  0.59985815  0.84530920  0.68249840    -0.37800
C1391       C  0.81270557  0.77779689  0.62411871    -0.04460
C1392       C  0.83683362  0.83391077  0.62293989    -0.01580
C1393       C  0.86212226  0.86108565  0.60636656     0.03410
C1394       C  0.86978333  0.83361196  0.59147351    -0.04460
C1395       C  0.84622277  0.77733189  0.59284959    -0.01570
C1396       C  0.81673246  0.74948099  0.60885353     0.03410
C1397       C  0.83745650  0.86432111  0.63903223     0.38060
C1398       C  0.84791970  0.74693487  0.57728384     0.38050
C1399       C  0.78877664  0.69133884  0.60932599     0.36470
C1400       C  0.87627664  0.91654573  0.60449226     0.36470
N1401       N  0.76625839  0.64498319  0.60968758    -0.38350
N1402       N  0.88412551  0.95981756  0.60337271    -0.38350
N1403       N  0.84747697  0.72067769  0.56516766    -0.37790
N1404       N  0.83912279  0.88917375  0.65183845    -0.37800
C1405       C  0.79629036  0.66236736  0.67875994    -0.04460
C1406       C  0.76385748  0.60658909  0.68197589    -0.01580
C1407       C  0.78502047  0.57768126  0.69086122     0.03410
C1408       C  0.83847981  0.60429030  0.69714276    -0.04460
C1409       C  0.87083467  0.66015113  0.69413030    -0.01570
C1410       C  0.84987193  0.68895807  0.68503025     0.03410
C1411       C  0.70866178  0.57782378  0.67603921     0.38060
C1412       C  0.92564780  0.68866731  0.70064363     0.38050
C1413       C  0.88333453  0.74652046  0.68257491     0.36470
C1414       C  0.75193046  0.51994041  0.69302168     0.36470
N1415       N  0.91006725  0.79236003  0.68056287    -0.38350
N1416       N  0.72548211  0.47397325  0.69476022    -0.38350
N1417       N  0.96959181  0.71206513  0.70559119    -0.37790
N1418       N  0.66421487  0.55252801  0.67185884    -0.37800
C1419       C  0.40379696  0.12681171  0.85941496    -0.04460
C1420       C  0.35847237  0.12313524  0.85060823    -0.01580
C1421       C  0.30660820  0.08053480  0.85523835     0.03410
C1422       C  0.29993847  0.04229566  0.86898584    -0.04460
C1423       C  0.34526235  0.04659834  0.87786241    -0.01570
C1424       C  0.39655822  0.08769667  0.87273817     0.03410
C1425       C  0.36499457  0.16318833  0.83703092     0.38060
C1426       C  0.33924046  0.00835278  0.89222182     0.38050
C1427       C  0.44264146  0.08711104  0.87990069     0.36470
C1428       C  0.26008649  0.07631145  0.84605958     0.36470
N1429       N  0.48007954  0.08574031  0.88439145    -0.38350
N1430       N  0.22290668  0.07291447  0.83873411    -0.38350
N1431       N  0.33452690  0.97823885  0.90379525    -0.37790
N1432       N  0.36979393  0.19525684  0.82626045    -0.37800
C1433       C  0.14390990  0.94983822  0.91318054    -0.04460
C1434       C  0.13302360  0.99134196  0.91673551    -0.01580
C1435       C  0.11008148  0.99320727  0.93380225     0.03410
C1436       C  0.09155156  0.95021310  0.94681835    -0.04460
C1437       C  0.10002100  0.90715155  0.94279428    -0.01570
C1438       C  0.12816112  0.90824395  0.92657785     0.03410
C1439       C  0.14411071  0.03184575  0.90259652     0.38060
C1440       C  0.08159016  0.86226322  0.95560650     0.38050
C1441       C  0.14277406  0.86747177  0.92417428     0.36470
C1442       C  0.10753577  0.04087609  0.93779730     0.36470
N1443       N  0.15448660  0.83500545  0.92227450    -0.38350
N1444       N  0.10835205  0.08064009  0.94051785    -0.38350
N1445       N  0.06629845  0.82598541  0.96563735    -0.37790
N1446       N  0.15275473  0.06404853  0.89133916    -0.37800
C1447       C  0.89530324  0.46092010  0.85088001    -0.04460
C1448       C  0.89903216  0.50243104  0.83942029    -0.01580
C1449       C  0.94902487  0.54513958  0.83395443     0.03410
C1450       C  0.99628913  0.54883574  0.84089834    -0.04460
C1451       C  0.99300245  0.50733335  0.85235604    -0.01570
C1452       C  0.94251124  0.46270528  0.85698662     0.03410
C1453       C  0.85076576  0.50119100  0.83340023     0.38060
C1454       C  0.04150865  0.51040586  0.85920965     0.38050
C1455       C  0.93953520  0.41839084  0.86748309     0.36470
C1456       C  0.95169277  0.58378750  0.82037352     0.36470
N1457       N  0.93826204  0.38309867  0.87562625    -0.38350
N1458       N  0.95340254  0.61362840  0.80920541    -0.38350
N1459       N  0.08022266  0.51284893  0.86470456    -0.37790
N1460       N  0.81165800  0.49998127  0.82930158    -0.37800
C1461       C  0.14698927  0.63821193  0.79527831    -0.04460
C1462       C  0.20340240  0.66654865  0.79388587    -0.01580
C1463       C  0.22858719  0.66906800  0.77680729     0.03410
C1464       C  0.19823615  0.63860466  0.76136418    -0.04460
C1465       C  0.14206116  0.60678511  0.76325287    -0.01570
C1466       C  0.11652947  0.60933898  0.77958324     0.03410
C1467       C  0.23620704  0.69153345  0.81018260     0.38060
C1468       C  0.10978337  0.57012977  0.74867940     0.38050
C1469       C  0.05868715  0.58362170  0.77978875     0.36470
C1470       C  0.28621431  0.70166412  0.77558424     0.36470
N1471       N  0.01259834  0.56313630  0.77984113    -0.38350
N1472       N  0.33218440  0.72828831  0.77502839    -0.38350
N1473       N  0.08303191  0.53909230  0.73763740    -0.37790
N1474       N  0.26322686  0.71144229  0.82299735    -0.37800
C1475       C  0.12461516  0.74627175  0.84501876    -0.04460
C1476       C  0.17400004  0.77360457  0.85446579    -0.01580
C1477       C  0.19251044  0.82544235  0.86154500     0.03410
C1478       C  0.16109398  0.84992675  0.85969145    -0.04460
C1479       C  0.11111489  0.82209397  0.85063261    -0.01570
C1480       C  0.09299837  0.77052834  0.84328157     0.03410
C1481       C  0.20455675  0.74722179  0.85780861     0.38060
C1482       C  0.07853001  0.84682165  0.84870538     0.38050
C1483       C  0.04176053  0.74265109  0.83394085     0.36470
C1484       C  0.24331580  0.85282763  0.87125130     0.36470
N1485       N  0.00059762  0.72104686  0.82663468    -0.38350
N1486       N  0.28399387  0.87449547  0.87888745    -0.38350
N1487       N  0.05248944  0.86650192  0.84720410    -0.37790
N1488       N  0.22875918  0.72618297  0.86082986    -0.37800
C1489       C  0.47466384  0.12757860  0.24966047    -0.04460
C1490       C  0.44726071  0.11291476  0.26679831    -0.01580
C1491       C  0.47300848  0.14079308  0.28317724     0.03410
C1492       C  0.52566869  0.18463074  0.28248864    -0.04460
C1493       C  0.55394653  0.19741337  0.26548798    -0.01570
C1494       C  0.52831998  0.16943316  0.24907030     0.03410
C1495       C  0.39260405  0.06872793  0.26761195     0.38060
C1496       C  0.61019662  0.23739499  0.26507575     0.38050
C1497       C  0.55729407  0.18306163  0.23161062     0.36470
C1498       C  0.44669525  0.12154884  0.30091739     0.36470
N1499       N  0.58041317  0.19377876  0.21768180    -0.38350
N1500       N  0.42547161  0.10496655  0.31500201    -0.38350
N1501       N  0.65538257  0.26836612  0.26475051    -0.37790
N1502       N  0.34903113  0.03348179  0.26834117    -0.37800
C1503       C  0.38227909  0.87054204  0.19335462    -0.04460
C1504       C  0.35104052  0.87441419  0.20768041    -0.01580
C1505       C  0.36157662  0.92492422  0.21401928     0.03410
C1506       C  0.40100560  0.97211679  0.20527968    -0.04460
C1507       C  0.42921849  0.96838667  0.18997920    -0.01570
C1508       C  0.42003984  0.91783603  0.18403504     0.03410
C1509       C  0.30559327  0.82641528  0.21518216     0.38060
C1510       C  0.46762543  0.01683548  0.18028095     0.38050
C1511       C  0.44807416  0.91553337  0.16782857     0.36470
C1512       C  0.33111014  0.92830902  0.22937186     0.36470
N1513       N  0.47135659  0.91749073  0.15454867    -0.38350
N1514       N  0.30685374  0.93087852  0.24165429    -0.38350
N1515       N  0.49811255  0.05546060  0.17251924    -0.37790
N1516       N  0.26834621  0.78887597  0.22106604    -0.37800
C1517       C  0.16086157  0.12149654  0.12852876    -0.04460
C1518       C  0.13364934  0.06481745  0.12707085    -0.01580
C1519       C  0.11130036  0.03946566  0.10988454     0.03410
C1520       C  0.11148113  0.06989708  0.09434501    -0.04460
C1521       C  0.13644433  0.12631029  0.09615129    -0.01570
C1522       C  0.16344444  0.15189353  0.11264393     0.03410
C1523       C  0.12636121  0.03204195  0.14341788     0.38060
C1524       C  0.13305691  0.15904095  0.08145937     0.38050
C1525       C  0.19451310  0.21000907  0.11300651     0.36470
C1526       C  0.08593555  0.98167901  0.10860931     0.36470
N1527       N  0.21870449  0.25630623  0.11349624    -0.38350
N1528       N  0.06643675  0.93560694  0.10778046    -0.38350
N1529       N  0.12975032  0.18672458  0.07052283    -0.37790
N1530       N  0.12046556  0.00580342  0.15643139    -0.37800
C1531       C  0.23522255  0.38025048  0.17968625    -0.04460
C1532       C  0.27944569  0.37412606  0.17567418    -0.01580
C1533       C  0.27266213  0.32370089  0.17127771     0.03410
C1534       C  0.22159025  0.27716350  0.17226965    -0.04460
C1535       C  0.17692591  0.28287588  0.17617703    -0.01570
C1536       C  0.18346632  0.33446583  0.17889579     0.03410
C1537       C  0.33142553  0.42106559  0.17326309     0.38060
C1538       C  0.12422198  0.23571760  0.17757615     0.38050
C1539       C  0.13668870  0.34000283  0.17970479     0.36470
C1540       C  0.31803299  0.32067079  0.16428960     0.36470
N1541       N  0.09828400  0.34276160  0.17964145    -0.38350
N1542       N  0.35412209  0.31847333  0.15859461    -0.38350
N1543       N  0.08218589  0.19805139  0.17875139    -0.37790
N1544       N  0.37255648  0.45852882  0.17066842    -0.37800
C1545       C  0.35538739  0.11618108  0.19779250    -0.04460
C1546       C  0.36278092  0.13070179  0.17876804    -0.01580
C1547       C  0.33048562  0.14807408  0.17002643     0.03410
C1548       C  0.28968750  0.14989555  0.18016254    -0.04460
C1549       C  0.28306539  0.13628886  0.19929092    -0.01570
C1550       C  0.31592154  0.11982045  0.20807558     0.03410
C1551       C  0.40414021  0.12843266  0.16823027     0.38060
C1552       C  0.24130610  0.13762741  0.20990699     0.38050
C1553       C  0.30784168  0.10506142  0.22764562     0.36470
C1554       C  0.34014912  0.16520407  0.15069190     0.36470
N1555       N  0.30145590  0.09366766  0.24327612    -0.38350
N1556       N  0.34778443  0.17876369  0.13526489    -0.38350
N1557       N  0.20821782  0.13900225  0.21839149    -0.37790
N1558       N  0.43699336  0.12644560  0.15980790    -0.37800
C1559       C  0.48191044  0.05395197  0.35105689    -0.04460
C1560       C  0.49158137  0.01186686  0.34677995    -0.01580
C1561       C  0.44856000  0.96013205  0.34239524     0.03410
C1562       C  0.39622806  0.95149864  0.34013449    -0.04460
C1563       C  0.38744782  0.99467393  0.34369217    -0.01570
C1564       C  0.42879472  0.04353649  0.35066104     0.03410
C1565       C  0.54562775  0.02134308  0.34703357     0.38060
C1566       C  0.33685762  0.99085804  0.33894254     0.38050
C1567       C  0.41604504  0.08363661  0.35663802     0.36470
C1568       C  0.45834954  0.91590616  0.34058142     0.36470
N1569       N  0.40438707  0.11439671  0.36150968    -0.38350
N1570       N  0.46635143  0.88070514  0.33921650    -0.38350
N1571       N  0.29678255  0.98811090  0.33508163    -0.37790
N1572       N  0.58858113  0.02840054  0.34693196    -0.37800
C1573       C  0.30536567  0.74687036  0.25884565    -0.04460
C1574       C  0.26754697  0.72023396  0.27318325    -0.01580
C1575       C  0.27355623  0.74551337  0.29046561     0.03410
C1576       C  0.30842119  0.80165729  0.29229903    -0.04460
C1577       C  0.34184925  0.83001184  0.27706369    -0.01570
C1578       C  0.34403350  0.80203497  0.26135630     0.03410
C1579       C  0.22155855  0.66724922  0.27039260     0.38060
C1580       C  0.37236873  0.88819431  0.27687312     0.38050
C1581       C  0.38627539  0.83130833  0.24789173     0.36470
C1582       C  0.24503198  0.71269830  0.30648079     0.36470
N1583       N  0.42108334  0.85528981  0.23760995    -0.38350
N1584       N  0.22244550  0.68673344  0.31929006    -0.38350
N1585       N  0.39663662  0.93456362  0.27655896    -0.37790
N1586       N  0.18403997  0.62552596  0.26820346    -0.37800
C1587       C  0.00940305  0.80744489  0.41409397    -0.04460
C1588       C  0.00613739  0.78179528  0.43123334    -0.01580
C1589       C  0.01115461  0.80856675  0.44818925     0.03410
C1590       C  0.02187459  0.86188395  0.44807685    -0.04460
C1591       C  0.03486861  0.89017504  0.43107420    -0.01570
C1592       C  0.02533509  0.86249762  0.41410371     0.03410
C1593       C  0.00262137  0.73000555  0.43113766     0.38060
C1594       C  0.06116054  0.94807392  0.43101279     0.38050
C1595       C  0.03199334  0.89087342  0.39667570     0.36470
C1596       C  0.01191119  0.78403003  0.46568134     0.36470
N1597       N  0.03731091  0.91352509  0.38278263    -0.38350
N1598       N  0.01420970  0.76533279  0.47968451    -0.38350
N1599       N  0.08301697  0.99434866  0.43061651    -0.37790
N1600       N  0.00125927  0.68939883  0.43023771    -0.37800
C1601       C  0.82034436  0.54884414  0.35890036    -0.04460
C1602       C  0.81157886  0.58894033  0.36642899    -0.01580
C1603       C  0.85532262  0.64070150  0.37055462     0.03410
C1604       C  0.90871117  0.65165837  0.36892388    -0.04460
C1605       C  0.91689367  0.61083629  0.36159654    -0.01570
C1606       C  0.87356514  0.56257284  0.35493745     0.03410
C1607       C  0.75741988  0.57796186  0.36902562     0.38060
C1608       C  0.96958342  0.61646434  0.36173223     0.38050
C1609       C  0.88474011  0.52846230  0.34337012     0.36470
C1610       C  0.84495963  0.68284434  0.37593495     0.36470
N1611       N  0.89420838  0.50271579  0.33358254    -0.38350
N1612       N  0.83657813  0.71645953  0.38016888    -0.38350
N1613       N  0.01146736  0.62076418  0.36185119    -0.37790
N1614       N  0.71421789  0.56927219  0.37106827    -0.37800
C1615       C  0.10095947  0.78826393  0.35941230    -0.04460
C1616       C  0.11173351  0.80938917  0.34117775    -0.01580
C1617       C  0.16179434  0.82582940  0.33299511     0.03410
C1618       C  0.20105681  0.82030589  0.34291243    -0.04460
C1619       C  0.18967264  0.79788660  0.36099829    -0.01570
C1620       C  0.13989877  0.78197212  0.36921537     0.03410
C1621       C  0.07169730  0.81521005  0.33097770     0.38060
C1622       C  0.22885058  0.79028786  0.37109076     0.38050
C1623       C  0.12847312  0.75822067  0.38772245     0.36470
C1624       C  0.17336105  0.84988726  0.31456114     0.36470
N1625       N  0.11942443  0.73952567  0.40249983    -0.38350
N1626       N  0.18263438  0.86888150  0.29983024    -0.38350
N1627       N  0.26016322  0.78445604  0.37916864    -0.37790
N1628       N  0.03961991  0.81956033  0.32280806    -0.37800
C1629       C  0.23601276  0.31056480  0.03564514    -0.04460
C1630       C  0.24318573  0.26626198  0.03896702    -0.01580
C1631       C  0.20137794  0.21372816  0.03539539     0.03410
C1632       C  0.15184596  0.20475597  0.02856814    -0.04460
C1633       C  0.14367888  0.24856727  0.02612785    -0.01570
C1634       C  0.18586466  0.30137567  0.02933040     0.03410
C1635       C  0.29280059  0.27437034  0.04691781     0.38060
C1636       C  0.09150787  0.23941351  0.02089204     0.38050
C1637       C  0.17771792  0.34625953  0.02594660     0.36470
C1638       C  0.20759734  0.16845166  0.04044781     0.36470
N1639       N  0.17112221  0.38201569  0.02326613    -0.38350
N1640       N  0.21219884  0.13238024  0.04480050    -0.38350
N1641       N  0.04993584  0.23296813  0.01706434    -0.37790
N1642       N  0.33238384  0.28089083  0.05324441    -0.37800
C1643       C  0.31942023  0.47134346  0.07670019    -0.04460
C1644       C  0.32910222  0.52435454  0.07730642    -0.01580
C1645       C  0.32812156  0.54729435  0.09454466     0.03410
C1646       C  0.31800992  0.51750976  0.11125400    -0.04460
C1647       C  0.30427380  0.46336350  0.11026649    -0.01570
C1648       C  0.30830974  0.44154401  0.09336659     0.03410
C1649       C  0.33877623  0.55474836  0.06019241     0.38060
C1650       C  0.28017251  0.42795503  0.12598539     0.38050
C1651       C  0.30316385  0.38893011  0.09323515     0.36470
C1652       C  0.33022578  0.59844136  0.09477094     0.36470
N1653       N  0.30011523  0.34749612  0.09276124    -0.38350
N1654       N  0.32991379  0.63830293  0.09475265    -0.38350
N1655       N  0.25775542  0.39750671  0.13777093    -0.37790
N1656       N  0.34661648  0.57905433  0.04653639    -0.37800
C1657       C  0.63844449  0.44692086  0.96538517    -0.04460
C1658       C  0.66869591  0.42151599  0.96372141    -0.01580
C1659       C  0.67106148  0.39965114  0.94644515     0.03410
C1660       C  0.63772427  0.39666545  0.93135433    -0.04460
C1661       C  0.60547696  0.41992883  0.93358883    -0.01570
C1662       C  0.61088243  0.45000343  0.94962005     0.03410
C1663       C  0.69834277  0.41889265  0.97962706     0.38060
C1664       C  0.56595971  0.41275021  0.91978216     0.38050
C1665       C  0.59527066  0.49031017  0.94880060     0.36470
C1666       C  0.70816879  0.38057427  0.94455488     0.36470
N1667       N  0.58546279  0.52438452  0.94776405    -0.38350
N1668       N  0.73962977  0.36743080  0.94372677    -0.38350
N1669       N  0.53234690  0.40571121  0.90945709    -0.37790
N1670       N  0.72211744  0.41684067  0.99227193    -0.37800
C1671       C  0.72680973  0.60499961  0.00740415    -0.04460
C1672       C  0.73948264  0.62490818  0.02583636    -0.01580
C1673       C  0.78109490  0.67810471  0.02935266     0.03410
C1674       C  0.81400397  0.71119370  0.01465694    -0.04460
C1675       C  0.80575226  0.68811858  0.99658453    -0.01570
C1676       C  0.76060992  0.63760551  0.99280608     0.03410
C1677       C  0.71170778  0.59022379  0.04149125     0.38060
C1678       C  0.84225730  0.71611586  0.98130113     0.38050
C1679       C  0.74853699  0.62063085  0.97351876     0.36470
C1680       C  0.79100711  0.69750944  0.04837157     0.36470
N1681       N  0.73959238  0.60674601  0.95818690    -0.38350
N1682       N  0.79875552  0.71275242  0.06356469    -0.38350
N1683       N  0.87101030  0.73766158  0.96899541    -0.37790
N1684       N  0.69113762  0.56366749  0.05438844    -0.37800
C1685       C  0.42798494  0.44967351  0.02786082    -0.04460
C1686       C  0.46989534  0.45581872  0.03962747    -0.01580
C1687       C  0.51928223  0.46713873  0.03199831     0.03410
C1688       C  0.52775906  0.47312794  0.01252730    -0.04460
C1689       C  0.48444957  0.46386055  0.00077035    -0.01570
C1690       C  0.43556562  0.45373203  0.00842789     0.03410
C1691       C  0.46155704  0.44815059  0.05959728     0.38060
C1692       C  0.48756108  0.46116188  0.98074649     0.38050
C1693       C  0.39279527  0.44749035  0.99617094     0.36470
C1694       C  0.55927796  0.46714371  0.04415488     0.36470
N1695       N  0.35872325  0.44223959  0.98637434    -0.38350
N1696       N  0.58984223  0.46541253  0.05409437    -0.38350
N1697       N  0.48579009  0.45585635  0.96477360    -0.37790
N1698       N  0.45481625  0.44224899  0.07550992    -0.37800
C1699       C  0.14899542  0.47848584  0.57823054    -0.04460
C1700       C  0.15029465  0.44741042  0.59323304    -0.01580
C1701       C  0.18033762  0.47231180  0.60929049     0.03410
C1702       C  0.19721677  0.52684551  0.61293824    -0.04460
C1703       C  0.18703788  0.55602768  0.59914922    -0.01570
C1704       C  0.16844831  0.53368887  0.58128346     0.03410
C1705       C  0.11496442  0.38975762  0.59333934     0.38060
C1706       C  0.19452815  0.60847868  0.60314540     0.38050
C1707       C  0.16998407  0.56793989  0.56616767     0.36470
C1708       C  0.19242043  0.44047431  0.62192345     0.36470
N1709       N  0.17149030  0.59553974  0.55415418    -0.38350
N1710       N  0.20257152  0.41471088  0.63162061    -0.38350
N1711       N  0.19912647  0.64981885  0.60628898    -0.37790
N1712       N  0.08532108  0.34404540  0.59382664    -0.37800
C1713       C  0.10627845  0.32864269  0.53288979    -0.04460
C1714       C  0.09298992  0.30705338  0.51462050    -0.01580
C1715       C  0.07933562  0.25326312  0.51103259     0.03410
C1716       C  0.07828051  0.21950290  0.52568697    -0.04460
C1717       C  0.09701730  0.24313738  0.54348472    -0.01570
C1718       C  0.11482401  0.29782243  0.54650112     0.03410
C1719       C  0.09696673  0.34136607  0.49913000     0.38060
C1720       C  0.09689156  0.21167807  0.55940899     0.38050
C1721       C  0.14666857  0.32178341  0.56303155     0.36470
C1722       C  0.06708218  0.23339938  0.49210236     0.36470
N1723       N  0.17412947  0.33906494  0.57593165    -0.38350
N1724       N  0.05733615  0.21771358  0.47697995    -0.38350
N1725       N  0.09728663  0.18761433  0.57228940    -0.37790
N1726       N  0.10019648  0.36868747  0.48675494    -0.37800
C1727       C  0.89853871  0.61692557  0.50844293    -0.04460
C1728       C  0.90529987  0.65158283  0.49361441    -0.01580
C1729       C  0.90536590  0.69935352  0.49669478     0.03410
C1730       C  0.91818823  0.72292842  0.51465201    -0.04460
C1731       C  0.92032880  0.69129510  0.52966111    -0.01570
C1732       C  0.90549045  0.63696034  0.52673786     0.03410
C1733       C  0.92433071  0.64383256  0.47603017     0.38060
C1734       C  0.93886124  0.71381515  0.54800712     0.38050
C1735       C  0.89899217  0.60256738  0.54248200     0.36470
C1736       C  0.89364970  0.72348917  0.48096022     0.36470
N1737       N  0.89384713  0.57520342  0.55507785    -0.38350
N1738       N  0.88347439  0.74189966  0.46835596    -0.38350
N1739       N  0.95475665  0.73161460  0.56260587    -0.37790
N1740       N  0.94248945  0.63769358  0.46264746    -0.37800
C1741       C  0.81385926  0.46066738  0.46482995    -0.04460
C1742       C  0.77969250  0.40438807  0.46390315    -0.01580
C1743       C  0.75515773  0.37991066  0.44685262     0.03410
C1744       C  0.77161485  0.40965413  0.43007842    -0.04460
C1745       C  0.80422075  0.46574641  0.43109560    -0.01570
C1746       C  0.81992113  0.49112047  0.44850565     0.03410
C1747       C  0.76596148  0.37222145  0.48073160     0.38060
C1748       C  0.81969316  0.49812779  0.41425525     0.38050
C1749       C  0.83216237  0.54609307  0.44937379     0.36470
C1750       C  0.70728403  0.32760429  0.44707187     0.36470
N1751       N  0.83694994  0.58832021  0.44900156    -0.38350
N1752       N  0.66741604  0.28722965  0.44753245    -0.38350
N1753       N  0.83265880  0.52457337  0.40099306    -0.37790
N1754       N  0.75479463  0.34631317  0.49411462    -0.37800
C1755       C  0.95105439  0.47610334  0.51116509    -0.04460
C1756       C  0.00664607  0.50609774  0.50795018    -0.01580
C1757       C  0.04048107  0.48924177  0.51573667     0.03410
C1758       C  0.01901247  0.44214682  0.52672001    -0.04460
C1759       C  0.96341531  0.41143760  0.52955580    -0.01570
C1760       C  0.92954119  0.42853779  0.52190618     0.03410
C1761       C  0.02909094  0.55452816  0.49669998     0.38060
C1762       C  0.94138593  0.36329193  0.54090878     0.38050
C1763       C  0.87286152  0.39866929  0.52591796     0.36470
C1764       C  0.09763471  0.52060869  0.51256240     0.36470
N1765       N  0.82772291  0.37498299  0.52929574    -0.38350
N1766       N  0.14321646  0.54558153  0.51005869    -0.38350
N1767       N  0.92398139  0.32487036  0.54996468    -0.37790
N1768       N  0.04693013  0.59323932  0.48778101    -0.37800
C1769       C  0.72338419  0.53513339  0.86753145    -0.04460
C1770       C  0.67709387  0.53651029  0.87253492    -0.01580
C1771       C  0.67994699  0.58496993  0.87722867     0.03410
C1772       C  0.72934536  0.63336334  0.87687820    -0.04460
C1773       C  0.77627169  0.63217666  0.87254261    -0.01570
C1774       C  0.77342201  0.58297369  0.86824832     0.03410
C1775       C  0.62627899  0.48735638  0.87397650     0.38060
C1776       C  0.82731460  0.68166390  0.87216523     0.38050
C1777       C  0.82203486  0.58186107  0.86500991     0.36470
C1778       C  0.63180671  0.58433010  0.88310979     0.36470
N1779       N  0.86170285  0.58223781  0.86285517    -0.38350
N1780       N  0.59305615  0.58297829  0.88778637    -0.38350
N1781       N  0.86803826  0.72119180  0.87183848    -0.37790
N1782       N  0.58526406  0.44872167  0.87535048    -0.37800
C1783       C  0.77915864  0.78768035  0.92046257    -0.04460
C1784       C  0.81172215  0.84417342  0.91945848    -0.01580
C1785       C  0.83250107  0.87391808  0.93582716     0.03410
C1786       C  0.82924692  0.84731966  0.95262384    -0.04460
C1787       C  0.79133175  0.79238521  0.95420825    -0.01570
C1788       C  0.76593832  0.76241592  0.93811747     0.03410
C1789       C  0.82412600  0.87205635  0.90169457     0.38060
C1790       C  0.77150677  0.77008712  0.97249658     0.38050
C1791       C  0.72330861  0.70711739  0.93978253     0.36470
C1792       C  0.84859212  0.93015182  0.93595776     0.36470
N1793       N  0.68847144  0.66330401  0.94086118    -0.38350
N1794       N  0.85849909  0.97426014  0.93619280    -0.38350
N1795       N  0.75392231  0.75339518  0.98706511    -0.37790
N1796       N  0.83411805  0.89438326  0.88754523    -0.37800
C1797       C  0.44321794  0.74448181  0.76175076    -0.04460
C1798       C  0.44707257  0.71352662  0.77636243    -0.01580
C1799       C  0.46709641  0.73688578  0.79387090     0.03410
C1800       C  0.49209772  0.79315742  0.79605867    -0.04460
C1801       C  0.49304929  0.82480279  0.78079628    -0.01570
C1802       C  0.46446658  0.80014066  0.76448610     0.03410
C1803       C  0.43022844  0.65750083  0.77367341     0.38060
C1804       C  0.52497427  0.88295265  0.78139498     0.38050
C1805       C  0.45613145  0.83278778  0.75102196     0.36470
C1806       C  0.45995753  0.70233833  0.80969478     0.36470
N1807       N  0.44879964  0.86000589  0.74105194    -0.38350
N1808       N  0.45406186  0.67464204  0.82226864    -0.38350
N1809       N  0.55047691  0.92924552  0.78180139    -0.37790
N1810       N  0.41854818  0.61324849  0.77158377    -0.37800
C1811       C  0.54997580  0.94280518  0.84089614    -0.04460
C1812       C  0.50634648  0.94926699  0.84569897    -0.01580
C1813       C  0.51356436  0.00129569  0.84747266     0.03410
C1814       C  0.56529045  0.04673764  0.84616693    -0.04460
C1815       C  0.60815411  0.03995521  0.84085868    -0.01570
C1816       C  0.60025482  0.98870173  0.83756856     0.03410
C1817       C  0.45407149  0.90251200  0.84869339     0.38060
C1818       C  0.66025085  0.08632784  0.83760427     0.38050
C1819       C  0.64313269  0.98394026  0.82926812     0.36470
C1820       C  0.46736569  0.00746155  0.84932205     0.36470
N1821       N  0.67761808  0.98148742  0.82226721    -0.38350
N1822       N  0.42913370  0.01043047  0.85001375    -0.38350
N1823       N  0.70190521  0.12322869  0.83503499    -0.37790
N1824       N  0.41235469  0.86523974  0.85112803    -0.37800
C1825       C  0.60942698  0.80853907  0.84908837    -0.04460
C1826       C  0.66355225  0.82808145  0.84475977    -0.01580
C1827       C  0.69121084  0.80535502  0.85335044     0.03410
C1828       C  0.66469145  0.76276676  0.86613804    -0.04460
C1829       C  0.61046607  0.74291556  0.87036762    -0.01570
C1830       C  0.58272091  0.76546272  0.86171376     0.03410
C1831       C  0.69075711  0.87086638  0.83126431     0.38060
C1832       C  0.58360951  0.70033214  0.88398839     0.38050
C1833       C  0.52651514  0.74411489  0.86565848     0.36470
C1834       C  0.74727265  0.82627383  0.84927538     0.36470
N1835       N  0.48164949  0.72703924  0.86871597    -0.38350
N1836       N  0.79198487  0.84295042  0.84605550    -0.38350
N1837       N  0.56186542  0.66667450  0.89494315    -0.37790
N1838       N  0.71348013  0.90461167  0.82042598    -0.37800
C1839       C  0.06035018  0.28826570  0.66846716    -0.04460
C1840       C  0.09033582  0.29433327  0.68473447    -0.01580
C1841       C  0.13101627  0.34570924  0.69027481     0.03410
C1842       C  0.14423237  0.39065324  0.67890553    -0.04460
C1843       C  0.11162765  0.38490371  0.66341218    -0.01570
C1844       C  0.07052318  0.33381944  0.65799492     0.03410
C1845       C  0.07973244  0.24767015  0.69568541     0.38060
C1846       C  0.11598148  0.43193306  0.65439617     0.38050
C1847       C  0.03725722  0.32832228  0.64205106     0.36470
C1848       C  0.15535298  0.35252465  0.70842363     0.36470
N1849       N  0.01058613  0.32390473  0.62938336    -0.38350
N1850       N  0.17199833  0.35679015  0.72336028    -0.38350
N1851       N  0.11730673  0.46881195  0.64747024    -0.37790
N1852       N  0.07196205  0.21061452  0.70439741    -0.37800
C1853       C  0.97489960  0.13147530  0.62545942    -0.04460
C1854       C  0.99334429  0.09480704  0.62592909    -0.01580
C1855       C  0.99090460  0.06639478  0.60974881     0.03410
C1856       C  0.97154007  0.07577760  0.59289490    -0.04460
C1857       C  0.95350906  0.11280393  0.59239506    -0.01570
C1858       C  0.95515627  0.14060320  0.60866544     0.03410
C1859       C  0.01499778  0.08652648  0.64304698     0.38060
C1860       C  0.93405901  0.12282326  0.57506918     0.38050
C1861       C  0.93764546  0.17952509  0.60806432     0.36470
C1862       C  0.00454852  0.02462153  0.61076787     0.36470
N1863       N  0.92394938  0.21079353  0.60756111    -0.38350
N1864       N  0.01358157  0.99002054  0.61177129    -0.38350
N1865       N  0.91847175  0.13062485  0.56123164    -0.37790
N1866       N  0.03265746  0.08023581  0.65666163    -0.37800
C1867       C  0.48979504  0.87285247  0.70021007    -0.04460
C1868       C  0.49156411  0.92123886  0.69574162    -0.01580
C1869       C  0.53792743  0.97061797  0.69967788     0.03410
C1870       C  0.58124800  0.97160873  0.70909187    -0.04460
C1871       C  0.57791216  0.92321854  0.71469593    -0.01570
C1872       C  0.53253789  0.87395494  0.71011435     0.03410
C1873       C  0.44496369  0.92042839  0.68805462     0.38060
C1874       C  0.62059580  0.92423727  0.72563311     0.38050
C1875       C  0.52891241  0.82432650  0.71632999     0.36470
C1876       C  0.54141765  0.02041304  0.69384251     0.36470
N1877       N  0.52656863  0.78510361  0.72136868    -0.38350
N1878       N  0.54439168  0.06014587  0.68907994    -0.38350
N1879       N  0.65455378  0.92519732  0.73444147    -0.37790
N1880       N  0.40764952  0.92070273  0.68247687    -0.37800
C1881       C  0.67046106  0.18753895  0.78192630    -0.04460
C1882       C  0.70289524  0.16404641  0.78136907    -0.01580
C1883       C  0.69971980  0.13245780  0.76609972     0.03410
C1884       C  0.67161867  0.13166342  0.74994725    -0.04460
C1885       C  0.64322451  0.15934076  0.74969819    -0.01570
C1886       C  0.64134065  0.18588437  0.76583421     0.03410
C1887       C  0.74187957  0.17442882  0.79582664     0.38060
C1888       C  0.61612095  0.16060027  0.73284092     0.38050
C1889       C  0.61233872  0.21447162  0.76534675     0.36470
C1890       C  0.72130004  0.09702365  0.76773536     0.36470
N1891       N  0.58936697  0.23744946  0.76455123    -0.38350
N1892       N  0.73667671  0.06731266  0.76950288    -0.38350
N1893       N  0.59463538  0.16182175  0.71939455    -0.37790
N1894       N  0.77506519  0.18420808  0.80670529    -0.37800
C1895       C  0.77419307  0.10812141  0.69852713    -0.04460
C1896       C  0.77525541  0.11328691  0.67890225    -0.01580
C1897       C  0.82328343  0.13107589  0.66901352     0.03410
C1898       C  0.87096845  0.14376348  0.67859917    -0.04460
C1899       C  0.86974052  0.13795740  0.69817275    -0.01570
C1900       C  0.82193199  0.12086711  0.70807526     0.03410
C1901       C  0.72725453  0.10206953  0.66881040     0.38060
C1902       C  0.91744478  0.14826741  0.70827263     0.38050
C1903       C  0.82263598  0.11616662  0.72815571     0.36470
C1904       C  0.82347044  0.13754386  0.64895860     0.36470
N1905       N  0.82539950  0.11375469  0.74415957    -0.38350
N1906       N  0.82302415  0.14206902  0.63295279    -0.38350
N1907       N  0.95507166  0.15643898  0.71656539    -0.37790
N1908       N  0.68897013  0.09285998  0.66073181    -0.37800
loop_ 
_geom_bond_atom_site_label_1 
_geom_bond_atom_site_label_2 
_geom_bond_distance 
_geom_bond_site_symmetry_2 
_ccdc_geom_bond_type 
C1            C2   1.403       .  A
C1            C6   1.398       .  A
C1         C1884   1.480       .  S
C2            C3   1.405       .  A
C2            H7   1.084       .  S
C3            C4   1.406       .  A
C3         C1895   1.495       .  S
C4            C5   1.402       .  A
C4            H8   1.084       .  S
C5            C6   1.398       .  A
C5         C1870   1.480   1_545  S
C6            H9   1.084       .  S
C10          C11   1.401   1_455  A
C10          C15   1.401       .  A
C10        C1839   1.481       .  S
C11          C12   1.405       .  A
C11          H16   1.084       .  S
C12          C13   1.404       .  A
C12        C1898   1.494       .  S
C13          C14   1.401       .  A
C13          H17   1.084       .  S
C14          C15   1.401   1_655  A
C14        C1853   1.480       .  S
C15          H18   1.084       .  S
C19          C20   1.406       .  A
C19          C24   1.401       .  A
C19        C1811   1.488       .  S
C20          C21   1.401       .  A
C20          H25   1.084       .  S
C21          C22   1.394       .  A
C21        C1825   1.476       .  S
C22          C23   1.401       .  A
C22          H26   1.083       .  S
C23          C24   1.407       .  A
C23        C1800   1.493       .  S
C24          H27   1.083       .  S
C28          C29   1.408       .  A
C28          C33   1.408       .  A
C28        C1772   1.492       .  S
C29          C30   1.399       .  A
C29          H34   1.084       .  S
C30          C31   1.390       .  A
C30        C1828   1.474       .  S
C31          C32   1.396       .  A
C31          H35   1.085       .  S
C32          C33   1.407       .  A
C32        C1783   1.484       .  S
C33          H36   1.084       .  S
C37          C38   1.402       .  A
C37          C42   1.413       .  A
C37        C1727   1.500       .  S
C38          C39   1.403       .  A
C38          H43   1.083       .  S
C39          C40   1.405       .  A
C39        C1755   1.490       .  S
C40          C41   1.409       .  A
C40          H44   1.084       .  S
C41          C42   1.407       .  A
C41        C1741   1.506       .  S
C42          H45   1.082       .  S
C46          C47   1.417       .  A
C46          C51   1.418       .  A
C46        C1713   1.529       .  S
C47          C48   1.405       .  A
C47          H52   1.081       .  S
C48          C49   1.396       .  A
C48        C1758   1.487       .  S
C49          C50   1.398       .  A
C49          H53   1.083       .  S
C50          C51   1.413       .  A
C50        C1699   1.503       .  S
C51          H54   1.076       .  S
C55          C56   1.414       .  A
C55          C60   1.410   1_554  A
C55        C1671   1.513       .  S
C56          C57   1.413       .  A
C56          H61   1.083       .  S
C57          C58   1.402   1_554  A
C57        C1688   1.500       .  S
C58          C59   1.400       .  A
C58          H62   1.083       .  S
C59          C60   1.401       .  A
C59        C1657   1.492       .  S
C60          H63   1.082       .  S
C64          C65   1.401       .  A
C64          C69   1.403       .  A
C64        C1629   1.494       .  S
C65          C66   1.404       .  A
C65          H70   1.084       .  S
C66          C67   1.403       .  A
C66        C1685   1.489       .  S
C67          C68   1.400       .  A
C67          H71   1.084       .  S
C68          C69   1.408       .  A
C68        C1643   1.489       .  S
C69          H72   1.084       .  S
C73          C74   1.412   1_655  A
C73          C78   1.418       .  A
C73        C1604   1.516       .  S
C74          C75   1.400       .  A
C74          H79   1.083       .  S
C75          C76   1.393       .  A
C75        C1615   1.485       .  S
C76          C77   1.396       .  A
C76          H80   1.085       .  S
C77          C78   1.414   1_455  A
C77        C1587   1.494       .  S
C78          H81   1.082       .  S
C82          C83   1.405       .  A
C82          C87   1.416       .  A
C82        C1576   1.508       .  S
C83          C84   1.395       .  A
C83          H88   1.083       .  S
C84          C85   1.397       .  A
C84        C1618   1.487       .  S
C85          C86   1.405       .  A
C85          H89   1.084       .  S
C86          C87   1.412       .  A
C86        C1562   1.506       .  S
C87          H90   1.080       .  S
C91          C92   1.404       .  A
C91          C96   1.406       .  A
C91        C1534   1.501       .  S
C92          C93   1.402       .  A
C92          H97   1.084       .  S
C93          C94   1.401       .  A
C93        C1548   1.491       .  S
C94          C95   1.404       .  A
C94          H98   1.083       .  S
C95          C96   1.413       .  A
C95        C1517   1.504       .  S
C96          H99   1.082       .  S
C100        C101   1.399       .  A
C100        C105   1.406       .  A
C100       C1489   1.484       .  S
C101        C102   1.401       .  A
C101        H106   1.084       .  S
C102        C103   1.403       .  A
C102       C1545   1.487       .  S
C103        C104   1.402       .  A
C103        H107   1.084       .  S
C104        C105   1.406       .  A
C104       C1506   1.487   1_545  S
C105        H108   1.084       .  S
C109        C110   1.404       .  A
C109        C114   1.404       .  A
C109       C1450   1.488   1_455  S
C110        C111   1.402       .  A
C110        H115   1.084       .  S
C111        C112   1.402       .  A
C111       C1475   1.489       .  S
C112        C113   1.407       .  A
C112        H116   1.084       .  S
C113        C114   1.410       .  A
C113       C1461   1.503       .  S
C114        H117   1.083       .  S
C118        C119   1.403       .  A
C118        C123   1.407       .  A
C118       C1422   1.492   1_565  S
C119        C120   1.404       .  A
C119        H124   1.084       .  S
C120        C121   1.402       .  A
C120       C1478   1.489       .  S
C121        C122   1.404       .  A
C121        H125   1.084       .  S
C122        C123   1.412       .  A
C122       C1433   1.504       .  S
C123        H126   1.083   1_565  S
C127        C128   1.401       .  A
C127        C132   1.408       .  A
C127       C1391   1.492       .  S
C128        C129   1.403       .  A
C128        H133   1.084       .  S
C129        C130   1.405       .  A
C129       C1405   1.496       .  S
C130        C131   1.410       .  A
C130        H134   1.084       .  S
C131        C132   1.406       .  A
C131       C1380   1.496       .  S
C132        H135   1.084       .  S
C136        C137   1.401       .  A
C136        C141   1.403       .  A
C136       C1363   1.485       .  S
C137        C138   1.403       .  A
C137        H142   1.084       .  S
C138        C139   1.404       .  A
C138       C1408   1.494       .  S
C139        C140   1.405       .  A
C139        H143   1.083       .  S
C140        C141   1.408       .  A
C140       C1349   1.499       .  S
C141        H144   1.084       .  S
C145        C146   1.401       .  A
C145        C150   1.393       .  A
C145       C1310   1.481       .  S
C146        C147   1.414       .  A
C146        H151   1.082       .  S
C147        C148   1.411       .  A
C147       C1321   1.511       .  S
C148        C149   1.404       .  A
C148        H152   1.082       .  S
C149        C150   1.397       .  A
C149       C1335   1.484       .  S
C150        H153   1.085       .  S
C154        C155   1.400       .  A
C154        C159   1.404       .  A
C154       C1293   1.485       .  S
C155        C156   1.399       .  A
C155        H160   1.084       .  S
C156        C157   1.403       .  A
C156       C1338   1.490       .  S
C157        C158   1.404       .  A
C157        H161   1.084       .  S
C158        C159   1.407       .  A
C158       C1279   1.488       .  S
C159        H162   1.084       .  S
C163        C164   1.408   1_556  A
C163        C168   1.412       .  A
C163       C1251   1.502   1_556  S
C164        C165   1.397   1_554  A
C164        H169   1.083   1_545  S
C165        C166   1.388       .  A
C165       C1268   1.472   1_546  S
C166        C167   1.392       .  A
C166        H170   1.085       .  S
C167        C168   1.405       .  A
C167       C1237   1.477       .  S
C168        H171   1.082       .  S
C172        C173   1.403       .  A
C172        C177   1.411       .  A
C172       C1209   1.497       .  S
C173        C174   1.392       .  A
C173        H178   1.084       .  S
C174        C175   1.391       .  A
C174       C1265   1.469       .  S
C175        C176   1.396       .  A
C175        H179   1.084       .  S
C176        C177   1.415       .  A
C176       C1226   1.492       .  S
C177        H180   1.083       .  S
C181        C182   1.405       .  A
C181        C186   1.400       .  A
C181       C1184   1.489       .  S
C182        C183   1.413       .  A
C182        H187   1.082       .  S
C183        C184   1.407       .  A
C183       C1167   1.512       .  S
C184        C185   1.404       .  A
C184        H188   1.083       .  S
C185        C186   1.402       .  A
C185       C1198   1.488       .  S
C186        H189   1.084       .  S
C190        C191   1.409       .  A
C190        C195   1.410       .  A
C190       C1139   1.493   1_455  S
C191        C192   1.408       .  A
C191        H196   1.083       .  S
C192        C193   1.398       .  A
C192       C1153   1.487       .  S
C193        C194   1.397       .  A
C193        H197   1.085       .  S
C194        C195   1.405       .  A
C194       C1195   1.492       .  S
C195        H198   1.084       .  S
C199        C200   1.410       .  A
C199        C204   1.408       .  A
C199       C1097   1.509       .  S
C200        C201   1.405       .  A
C200        H205   1.081       .  S
C201        C202   1.402       .  A
C201       C1125   1.490       .  S
C202        C203   1.398       .  A
C202        H206   1.084       .  S
C203        C204   1.398       .  A
C203       C1111   1.480       .  S
C204        H207   1.082       .  S
C208        C209   1.406   1_565  A
C208        C213   1.409       .  A
C208       C1069   1.502       .  S
C209        C210   1.406       .  A
C209        H214   1.084       .  S
C210        C211   1.402   1_545  A
C210       C1128   1.490       .  S
C211        C212   1.402       .  A
C211        H215   1.084       .  S
C212        C213   1.402       .  A
C212       C1086   1.486       .  S
C213        H216   1.084       .  S
C217        C218   1.405       .  A
C217        C222   1.410       .  A
C217       C1041   1.498       .  S
C218        C219   1.401       .  A
C218        H223   1.083       .  S
C219        C220   1.401       .  A
C219       C1055   1.488       .  S
C220        C221   1.398       .  A
C220        H224   1.084       .  S
C221        C222   1.404       .  A
C221       C1030   1.485       .  S
C222        H225   1.084       .  S
C226        C227   1.399       .  A
C226        C231   1.402       .  A
C226       C1002   1.479   1_565  S
C227        C228   1.401       .  A
C227        H232   1.084       .  S
C228        C229   1.403       .  A
C228       C1058   1.487       .  S
C229        C230   1.402       .  A
C229        H233   1.084       .  S
C230        C231   1.402       .  A
C230       C1013   1.484       .  S
C231        H234   1.084   1_565  S
C235        C236   1.405       .  A
C235        C240   1.410       .  A
C235        C957   1.506       .  S
C236        C237   1.401       .  A
C236        H241   1.083       .  S
C237        C238   1.397       .  A
C237        C985   1.481       .  S
C238        C239   1.399       .  A
C238        H242   1.084       .  S
C239        C240   1.405       .  A
C239        C971   1.495       .  S
C240        H243   1.081       .  S
C244        C245   1.395       .  A
C244        C249   1.410       .  A
C244        C929   1.486       .  S
C245        C246   1.393   1_565  A
C245        H250   1.084       .  S
C246        C247   1.399       .  A
C246        C988   1.475       .  S
C247        C248   1.410   1_545  A
C247        H251   1.082       .  S
C248        C249   1.413       .  A
C248        C943   1.517       .  S
C249        H252   1.080       .  S
C253        C254   1.412       .  A
C253        C258   1.405       .  A
C253        C901   1.504       .  S
C254        C255   1.409       .  A
C254        H259   1.081       .  S
C255        C256   1.408       .  A
C255        C918   1.508       .  S
C256        C257   1.403       .  A
C256        H260   1.082       .  S
C257        C258   1.410       .  A
C257        C887   1.501       .  S
C258        H261   1.083       .  S
C262        C263   1.407       .  A
C262        C267   1.404       .  A
C262        C873   1.484       .  S
C263        C264   1.401       .  A
C263        H268   1.084       .  S
C264        C265   1.394       .  A
C264        C859   1.481       .  S
C265        C266   1.402       .  A
C265        H269   1.084       .  S
C266        C267   1.405       .  A
C266        C915   1.494       .  S
C267        H270   1.083       .  S
C271        C272   1.398       .  A
C271        C276   1.411       .  A
C271        C834   1.485       .  S
C272        C273   1.395       .  A
C272        H277   1.084       .  S
C273        C274   1.396       .  A
C273        C845   1.474       .  S
C274        C275   1.404       .  A
C274        H278   1.084       .  S
C275        C276   1.412       .  A
C275        C817   1.505       .  S
C276        H279   1.082       .  S
C280        C281   1.410   1_455  A
C280        C285   1.416       .  A
C280        C789   1.515       .  S
C281        C282   1.400       .  A
C281        H286   1.083       .  S
C282        C283   1.391       .  A
C282        C848   1.476       .  S
C283        C284   1.396       .  A
C283        H287   1.085       .  S
C284        C285   1.414   1_655  A
C284        C803   1.496       .  S
C285        H288   1.082       .  S
C289        C290   1.400       .  A
C289        C294   1.402   1_554  A
C289        C747   1.480       .  S
C290        C291   1.406       .  A
C290        H295   1.084       .  S
C291        C292   1.405   1_554  A
C291        C775   1.492       .  S
C292        C293   1.401       .  A
C292        H296   1.084       .  S
C293        C294   1.399       .  A
C293        C761   1.484       .  S
C294        H297   1.084       .  S
C298        C299   1.396       .  A
C298        C303   1.406       .  A
C298        C733   1.486       .  S
C299        C300   1.396       .  A
C299        H304   1.085       .  S
C300        C301   1.398       .  A
C300        C778   1.484   1_455  S
C301        C302   1.408       .  A
C301        H305   1.083       .  S
C302        C303   1.414       .  A
C302        C719   1.505       .  S
C303        H306   1.082       .  S
C307        C308   1.415       .  A
C307        C312   1.411       .  A
C307        C694   1.513       .  S
C308        C309   1.407       .  A
C308        H313   1.082       .  S
C309        C310   1.396       .  A
C309        C677   1.484       .  S
C310        C311   1.393       .  A
C310        H314   1.084       .  S
C311        C312   1.399       .  A
C311        C708   1.479       .  S
C312        H315   1.082       .  S
C316        C317   1.395   1_655  A
C316        C321   1.409       .  A
C316        C649   1.486   1_655  S
C317        C318   1.392       .  A
C317        H322   1.085       .  S
C318        C319   1.400   1_455  A
C318        C705   1.479       .  S
C319        C320   1.411       .  A
C319        H323   1.082       .  S
C320        C321   1.418       .  A
C320        C666   1.515       .  S
C321        H324   1.082       .  S
O325       Zr361   2.433       .  S
O325        C336   1.291       .  A
O326       Zr360   2.448       .  S
O326        C337   1.294       .  A
O327       Zr333   2.444       .  S
O327        C338   1.292       .  A
O328       Zr333   2.450       .  S
O328        C339   1.295       .  A
O329       Zr363   2.435       .  S
O329        C339   1.292       .  A
O330       Zr362   2.445       .  S
O330        C338   1.294       .  A
O331       Zr333   2.468       .  S
O331        C337   1.296       .  A
O332       Zr333   2.445       .  S
O332        C336   1.294       .  A
Zr333       O334   2.340       .  S
Zr333       O335   2.356       .  S
Zr333       O343   2.344       .  S
Zr333       O341   2.342       .  S
O334       Zr360   2.341       .  S
O334       Zr363   2.344       .  S
O335       Zr361   2.344       .  S
O335       Zr362   2.338       .  S
C336       C1881   1.485       .  S
C337       C1419   1.494       .  S
C338       C1814   1.484       .  S
C339        C974   1.499       .  S
H340        O341   0.963       .  S
O341       Zr360   2.347       .  S
O341       Zr362   2.333       .  S
H342        O343   0.965       .  S
O343       Zr361   2.341       .  S
O343       Zr363   2.342       .  S
O344       Zr360   2.479       .  S
O344        C367   1.301       .  A
O345       Zr361   2.436       .  S
O345        C368   1.290       .  A
O346       Zr362   2.445       .  S
O346        C369   1.293       .  A
O347       Zr363   2.452       .  S
O347        C370   1.294       .  A
O348       Zr363   2.460       .  S
O348        C371   1.296       .  A
O349       Zr362   2.450       .  S
O349        C372   1.294       .  A
O350       Zr364   2.472       .  S
O350        C373   1.300       .  A
O351       Zr364   2.456       .  S
O351        C374   1.295       .  A
O352       Zr362   2.411       .  S
O352        C373   1.286       .  A
O353       Zr363   2.455       .  S
O353        C374   1.297       .  A
O354       Zr360   2.421       .  S
O354        C369   1.289       .  A
O355       Zr361   2.448       .  S
O355        C372   1.294       .  A
O356       Zr361   2.437       .  S
O356        C371   1.292       .  A
O357       Zr360   2.445       .  S
O357        C370   1.294       .  A
O358       Zr364   2.424       .  S
O358        C367   1.289       .  A
O359       Zr364   2.457       .  S
O359        C368   1.295       .  A
Zr360       O366   2.336       .  S
Zr360       O378   2.331       .  S
Zr361       O365   2.344       .  S
Zr361       O376   2.336       .  S
Zr362       O366   2.340       .  S
Zr362       O376   2.351       .  S
Zr363       O365   2.346       .  S
Zr363       O378   2.350       .  S
Zr364       O365   2.345       .  S
Zr364       O366   2.339       .  S
Zr364       O378   2.360       .  S
Zr364       O376   2.337       .  S
C367       C1660   1.498       .  S
C368       C1447   1.485       .  S
C369       C1240   1.485       .  S
C370        C691   1.507       .  S
C371       C1352   1.505       .  S
C372        C663   1.511       .  S
C373        C764   1.490       .  S
C374       C1769   1.489       .  S
H375        O376   0.965       .  S
H377        O378   0.964       .  S
O379       Zr415   2.418       .  S
O379        C390   1.287       .  A
O380       Zr414   2.453       .  S
O380        C391   1.294       .  A
O381       Zr387   2.469   1_455  S
O381        C392   1.299       .  A
O382       Zr387   2.424   1_554  S
O382        C393   1.288       .  A
O383       Zr417   2.473       .  S
O383        C393   1.299       .  A
O384       Zr416   2.432   1_566  S
O384        C392   1.291       .  A
O385       Zr387   2.431   1_454  S
O385        C391   1.290       .  A
O386       Zr387   2.466       .  S
O386        C390   1.297       .  A
Zr387       O388   2.353   1_556  S
Zr387       O389   2.328       .  S
Zr387       O397   2.337   1_556  S
Zr387       O395   2.344   1_656  S
O388       Zr414   2.345   1_655  S
O388       Zr417   2.333       .  S
O389       Zr415   2.332       .  S
O389       Zr416   2.343   1_666  S
C390       C1786   1.480       .  S
C391        C736   1.478       .  S
C392       C1436   1.506       .  S
C393       C1674   1.516       .  S
H394        O395   0.966       .  S
O395       Zr414   2.347       .  S
O395       Zr416   2.340   1_565  S
H396        O397   0.965       .  S
O397       Zr415   2.344   1_554  S
O397       Zr417   2.346       .  S
O398       Zr414   2.472   1_545  S
O398        C421   1.299       .  A
O399       Zr415   2.428   1_544  S
O399        C422   1.291       .  A
O400       Zr416   2.433       .  S
O400        C423   1.291       .  A
O401       Zr417   2.483       .  S
O401        C424   1.301       .  A
O402       Zr417   2.442       .  S
O402        C425   1.294       .  A
O403       Zr416   2.424   1_556  S
O403        C426   1.288       .  A
O404       Zr418   2.441   1_455  S
O404        C427   1.292       .  A
O405       Zr418   2.451       .  S
O405        C428   1.294   1_545  A
O406       Zr416   2.442       .  S
O406        C427   1.293       .  A
O407       Zr417   2.448       .  S
O407        C428   1.295       .  A
O408       Zr414   2.430       .  S
O408        C423   1.290   1_565  A
O409       Zr415   2.466   1_545  S
O409        C426   1.298   1_655  A
O410       Zr415   2.432   1_554  S
O410        C425   1.291       .  A
O411       Zr414   2.417       .  S
O411        C424   1.288   1_455  A
O412       Zr418   2.419   1_455  S
O412        C421   1.289       .  A
O413       Zr418   2.446       .  S
O413        C422   1.292       .  A
Zr414       O420   2.336   1_565  S
Zr414       O432   2.342   1_455  S
Zr415       O419   2.341   1_556  S
Zr415       O430   2.339   1_566  S
Zr416       O420   2.338       .  S
Zr416       O430   2.348   1_455  S
Zr417       O419   2.354       .  S
Zr417       O432   2.341       .  S
Zr418       O419   2.329   1_545  S
Zr418       O420   2.351   1_655  S
Zr418       O432   2.347   1_545  S
Zr418       O430   2.347       .  S
C421       C1520   1.497       .  S
C422        C750   1.482       .  S
C423       C1254   1.493       .  S
C424        C806   1.494       .  S
C425       C1212   1.489       .  S
C426        C652   1.489       .  S
C427       C1632   1.483       .  S
C428       C1072   1.497       .  S
H429        O430   0.966   1_455  S
H431        O432   0.966       .  S
O433       Zr469   2.470       .  S
O433        C444   1.297       .  A
O434       Zr468   2.467       .  S
O434        C445   1.297       .  A
O435       Zr441   2.468       .  S
O435        C446   1.298       .  A
O436       Zr441   2.480       .  S
O436        C447   1.300       .  A
O437       Zr471   2.421       .  S
O437        C447   1.289       .  A
O438       Zr470   2.439       .  S
O438        C446   1.293       .  A
O439       Zr441   2.440       .  S
O439        C445   1.291       .  A
O440       Zr441   2.420       .  S
O440        C444   1.289       .  A
Zr441       O442   2.349       .  S
Zr441       O443   2.349       .  S
Zr441       O451   2.340       .  S
Zr441       O449   2.350       .  S
O442       Zr468   2.348       .  S
O442       Zr471   2.347       .  S
O443       Zr469   2.348       .  S
O443       Zr470   2.351       .  S
C444       C1744   1.486       .  S
C445       C1027   1.486       .  S
C446       C1601   1.508       .  S
C447       C1324   1.505       .  S
H448        O449   0.964       .  S
O449       Zr468   2.349       .  S
O449       Zr470   2.329       .  S
H450        O451   0.965       .  S
O451       Zr469   2.336       .  S
O451       Zr471   2.339       .  S
O452       Zr468   2.481       .  S
O452        C475   1.300       .  A
O453       Zr469   2.470       .  S
O453        C476   1.299       .  A
O454       Zr470   2.505       .  S
O454        C477   1.306       .  A
O455       Zr471   2.480       .  S
O455        C478   1.300       .  A
O456       Zr471   2.469       .  S
O456        C479   1.298       .  A
O457       Zr470   2.466       .  S
O457        C480   1.297       .  A
O458       Zr472   2.458       .  S
O458        C481   1.295       .  A
O459       Zr472   2.454       .  S
O459        C482   1.295       .  A
O460       Zr470   2.419       .  S
O460        C481   1.288       .  A
O461       Zr471   2.443       .  S
O461        C482   1.294       .  A
O462       Zr468   2.394       .  S
O462        C477   1.283       .  A
O463       Zr469   2.452       .  S
O463        C480   1.295       .  A
O464       Zr469   2.422       .  S
O464        C479   1.289       .  A
O465       Zr468   2.421       .  S
O465        C478   1.288       .  A
O466       Zr472   2.410       .  S
O466        C475   1.285       .  A
O467       Zr472   2.422       .  S
O467        C476   1.287       .  A
Zr468       O474   2.340       .  S
Zr468       O486   2.336       .  S
Zr469       O473   2.342       .  S
Zr469       O484   2.338       .  S
Zr470       O474   2.340       .  S
Zr470       O484   2.356       .  S
Zr471       O473   2.344       .  S
Zr471       O486   2.346       .  S
Zr472       O473   2.337       .  S
Zr472       O474   2.340       .  S
Zr472       O486   2.357       .  S
Zr472       O484   2.342       .  S
C475       C1492   1.485       .  S
C476        C999   1.485       .  S
C477        C820   1.505       .  S
C478       C1181   1.494       .  S
C479        C890   1.509       .  S
C480       C1142   1.494       .  S
C481       C1100   1.513       .  S
C482       C1559   1.494       .  S
H483        O484   0.965       .  S
H485        O486   0.966       .  S
O487       Zr523   2.436       .  S
O487        C498   1.290       .  A
O488       Zr522   2.491       .  S
O488        C499   1.303       .  A
O489       Zr495   2.446       .  S
O489        C500   1.292       .  A
O490       Zr495   2.453       .  S
O490        C501   1.294       .  A
O491       Zr525   2.423       .  S
O491        C501   1.288       .  A
O492       Zr524   2.472       .  S
O492        C500   1.299       .  A
O493       Zr495   2.405       .  S
O493        C499   1.285       .  A
O494       Zr495   2.436       .  S
O494        C498   1.291       .  A
Zr495       O496   2.338       .  S
Zr495       O497   2.332       .  S
Zr495       O505   2.340       .  S
Zr495       O503   2.348       .  S
O496       Zr522   2.335       .  S
O496       Zr525   2.335       .  S
O497       Zr523   2.348       .  S
O497       Zr524   2.331       .  S
C498       C1867   1.476       .  S
C499       C1282   1.494       .  S
C500       C1377   1.498       .  S
C501        C862   1.479       .  S
H502        O503   0.965       .  S
O503       Zr522   2.339       .  S
O503       Zr524   2.337       .  S
H504        O505   0.966       .  S
O505       Zr523   2.350       .  S
O505       Zr525   2.355       .  S
O506       Zr522   2.463       .  S
O506        C529   1.297       .  A
O507       Zr523   2.462       .  S
O507        C530   1.297       .  A
O508       Zr524   2.419       .  S
O508        C531   1.288       .  A
O509       Zr525   2.463       .  S
O509        C532   1.297       .  A
O510       Zr525   2.432       .  S
O510        C533   1.291       .  A
O511       Zr524   2.444       .  S
O511        C534   1.294       .  A
O512       Zr526   2.445       .  S
O512        C535   1.292       .  A
O513       Zr526   2.436       .  S
O513        C536   1.290       .  A
O514       Zr524   2.440       .  S
O514        C535   1.291       .  A
O515       Zr525   2.452       .  S
O515        C536   1.294       .  A
O516       Zr522   2.457       .  S
O516        C531   1.296       .  A
O517       Zr523   2.424       .  S
O517        C534   1.290       .  A
O518       Zr523   2.453       .  S
O518        C533   1.295       .  A
O519       Zr522   2.433       .  S
O519        C532   1.291       .  A
O520       Zr526   2.434       .  S
O520        C529   1.290       .  A
O521       Zr526   2.437       .  S
O521        C530   1.292       .  A
Zr522       O528   2.343       .  S
Zr522       O540   2.357       .  S
Zr523       O527   2.335       .  S
Zr523       O538   2.345       .  S
Zr524       O528   2.345       .  S
Zr524       O538   2.344       .  S
Zr525       O527   2.340       .  S
Zr525       O540   2.325       .  S
Zr526       O527   2.340       .  S
Zr526       O528   2.339       .  S
Zr526       O540   2.349       .  S
Zr526       O538   2.341       .  S
C529       C1842   1.482       .  S
C530       C1464   1.497       .  S
C531        C960   1.510       .  S
C532       C1702   1.505       .  S
C533        C932   1.498       .  S
C534       C1797   1.488       .  S
C535        C680   1.480       .  S
C536       C1366   1.484       .  S
H537        O538   0.966       .  S
H539        O540   0.964       .  S
O541       Zr577   2.472       .  S
O541        C552   1.298       .  A
O542       Zr576   2.445       .  S
O542        C553   1.293       .  A
O543       Zr549   2.458       .  S
O543        C554   1.295       .  A
O544       Zr549   2.467       .  S
O544        C555   1.297       .  A
O545       Zr579   2.426       .  S
O545        C555   1.290       .  A
O546       Zr578   2.458       .  S
O546        C554   1.297       .  A
O547       Zr549   2.436       .  S
O547        C553   1.291       .  A
O548       Zr549   2.426       .  S
O548        C552   1.289       .  A
Zr549       O550   2.346       .  S
Zr549       O551   2.360       .  S
Zr549       O559   2.338       .  S
Zr549       O557   2.346       .  S
O550       Zr576   2.350       .  S
O550       Zr579   2.352       .  S
O551       Zr577   2.339       .  S
O551       Zr578   2.346       .  S
C552       C1646   1.487       .  S
C553       C1114   1.477       .  S
C554       C1531   1.499       .  S
C555        C722   1.498       .  S
H556        O557   0.961       .  S
O557       Zr576   2.344       .  S
O557       Zr578   2.339       .  S
H558        O559   0.965       .  S
O559       Zr577   2.345       .  S
O559       Zr579   2.343       .  S
O560       Zr576   2.466       .  S
O560        C583   1.298       .  A
O561       Zr577   2.442       .  S
O561        C584   1.292       .  A
O562       Zr578   2.454       .  S
O562        C585   1.294       .  A
O563       Zr579   2.461       .  S
O563        C586   1.296       .  A
O564       Zr579   2.463       .  S
O564        C587   1.297       .  A
O565       Zr578   2.460       .  S
O565        C588   1.297       .  A
O566       Zr580   2.452       .  S
O566        C589   1.295       .  A
O567       Zr580   2.467       .  S
O567        C590   1.297       .  A
O568       Zr578   2.441       .  S
O568        C589   1.293       .  A
O569       Zr579   2.453       .  S
O569        C590   1.293       .  A
O570       Zr576   2.449       .  S
O570        C585   1.295       .  A
O571       Zr577   2.447       .  S
O571        C588   1.292       .  A
O572       Zr577   2.398       .  S
O572        C587   1.283       .  A
O573       Zr576   2.438       .  S
O573        C586   1.292       .  A
O574       Zr580   2.420       .  S
O574        C583   1.288       .  A
O575       Zr580   2.453       .  S
O575        C584   1.295       .  A
Zr576       O582   2.327       .  S
Zr576       O594   2.333       .  S
Zr577       O581   2.358       .  S
Zr577       O592   2.341       .  S
Zr578       O582   2.342       .  S
Zr578       O592   2.348       .  S
Zr579       O581   2.349       .  S
Zr579       O594   2.338       .  S
Zr580       O581   2.340       .  S
Zr580       O582   2.338       .  S
Zr580       O594   2.340       .  S
Zr580       O592   2.343       .  S
C583       C1573   1.505       .  S
C584       C1083   1.484       .  S
C585       C1156   1.491       .  S
C586        C792   1.504       .  S
C587       C1223   1.498       .  S
C588        C831   1.496       .  S
C589       C1044   1.507       .  S
C590       C1503   1.492       .  S
H591        O592   0.965       .  S
H593        O594   0.963       .  S
O595       Zr631   2.462   1_545  S
O595        C606   1.296       .  A
O596       Zr630   2.457   1_545  S
O596        C607   1.295       .  A
O597       Zr603   2.455       .  S
O597        C608   1.295   1_545  A
O598       Zr603   2.433       .  S
O598        C609   1.290       .  A
O599       Zr633   2.467   1_455  S
O599        C609   1.297       .  A
O600       Zr632   2.416       .  S
O600        C608   1.287       .  A
O601       Zr603   2.429       .  S
O601        C607   1.288       .  A
O602       Zr603   2.411       .  S
O602        C606   1.286   1_455  A
Zr603       O604   2.338       .  S
Zr603       O605   2.338   1_445  S
Zr603       O613   2.350   1_455  S
Zr603       O611   2.329   1_545  S
O604       Zr630   2.341   1_545  S
O604       Zr633   2.349   1_455  S
O605       Zr631   2.335       .  S
O605       Zr632   2.333   1_655  S
C606       C1856   1.478       .  S
C607       C1307   1.483       .  S
C608        C946   1.507       .  S
C609       C1716   1.517       .  S
H610        O611   0.965       .  S
O611       Zr630   2.344       .  S
O611       Zr632   2.356       .  S
H612        O613   0.966       .  S
O613       Zr631   2.340   1_545  S
O613       Zr633   2.344       .  S
O614       Zr630   2.446       .  S
O614        C637   1.292       .  A
O615       Zr631   2.457       .  S
O615        C638   1.295       .  A
O616       Zr632   2.456       .  S
O616        C639   1.296       .  A
O617       Zr633   2.462   1_455  S
O617        C640   1.297       .  A
O618       Zr633   2.464       .  S
O618        C641   1.297       .  A
O619       Zr632   2.492   1_655  S
O619        C642   1.302       .  A
O620       Zr634   2.451       .  S
O620        C643   1.295       .  A
O621       Zr634   2.458       .  S
O621        C644   1.296       .  A
O622       Zr632   2.431   1_655  S
O622        C643   1.290       .  A
O623       Zr633   2.443       .  S
O623        C644   1.293   1_545  A
O624       Zr630   2.448       .  S
O624        C639   1.293       .  A
O625       Zr631   2.416       .  S
O625        C642   1.288       .  A
O626       Zr631   2.422   1_545  S
O626        C641   1.288       .  A
O627       Zr630   2.428   1_545  S
O627        C640   1.290       .  A
O628       Zr634   2.458       .  S
O628        C637   1.295   1_655  A
O629       Zr634   2.449       .  S
O629        C638   1.294       .  A
Zr630       O636   2.341       .  S
Zr630       O648   2.349   1_455  S
Zr631       O635   2.341       .  S
Zr631       O646   2.347       .  S
Zr632       O636   2.346       .  S
Zr632       O646   2.330   1_455  S
Zr633       O635   2.349   1_545  S
Zr633       O648   2.357   1_545  S
Zr634       O635   2.353       .  S
Zr634       O636   2.337   1_655  S
Zr634       O648   2.341       .  S
Zr634       O646   2.346       .  S
C637       C1590   1.489       .  S
C638       C1296   1.487       .  S
C639        C876   1.486       .  S
C640       C1170   1.500       .  S
C641        C904   1.501       .  S
C642       C1394   1.500       .  S
C643       C1730   1.512       .  S
C644       C1016   1.487       .  S
H645        O646   0.965       .  S
H647        O648   0.966       .  S
C649        C650   1.414       .  A
C649        C654   1.412   1_455  A
C650        C651   1.411       .  A
C650        C655   1.450       .  S
C651        C652   1.413       .  A
C651        C658   1.451       .  S
C652        C653   1.408   1_455  A
C653        C654   1.410       .  A
C653        C656   1.450       .  S
C654        C657   1.450       .  S
C655        N662   1.157       .  T
C656        N661   1.158   1_545  T
C657        N659   1.157       .  T
C658        N660   1.158       .  T
C663        C664   1.422       .  A
C663        C668   1.420       .  A
C664        C665   1.419       .  A
C664        C669   1.451       .  S
C665        C666   1.420       .  A
C665        C672   1.452       .  S
C666        C667   1.422       .  A
C667        C668   1.412       .  A
C667        C670   1.453       .  S
C668        C671   1.453       .  S
C669        N676   1.158       .  T
C670        N675   1.157   1_655  T
C671        N673   1.157       .  T
C672        N674   1.158       .  T
C677        C678   1.410       .  A
C677        C682   1.413       .  A
C678        C679   1.412       .  A
C678        C683   1.450       .  S
C679        C680   1.412       .  A
C679        C686   1.448       .  S
C680        C681   1.410       .  A
C681        C682   1.410       .  A
C681        C684   1.450       .  S
C682        C685   1.451       .  S
C683        N690   1.157       .  T
C684        N689   1.157       .  T
C685        N687   1.157       .  T
C686        N688   1.157       .  T
C691        C692   1.419       .  A
C691        C696   1.418       .  A
C692        C693   1.418       .  A
C692        C697   1.451       .  S
C693        C694   1.420       .  A
C693        C700   1.451       .  S
C694        C695   1.420       .  A
C695        C696   1.410       .  A
C695        C698   1.453       .  S
C696        C699   1.451       .  S
C697        N704   1.158       .  T
C698        N703   1.157       .  T
C699        N701   1.157       .  T
C700        N702   1.158       .  T
C705        C706   1.414       .  A
C705        C710   1.408       .  A
C706        C707   1.407       .  A
C706        C711   1.451       .  S
C707        C708   1.408       .  A
C707        C714   1.451       .  S
C708        C709   1.414       .  A
C709        C710   1.410       .  A
C709        C712   1.451       .  S
C710        C713   1.450       .  S
C711        N718   1.157       .  T
C712        N717   1.157       .  T
C713        N715   1.157       .  T
C714        N716   1.157       .  T
C719        C720   1.418       .  A
C719        C724   1.417       .  A
C720        C721   1.413       .  A
C720        C725   1.453       .  S
C721        C722   1.415       .  A
C721        C728   1.449       .  S
C722        C723   1.417       .  A
C723        C724   1.412       .  A
C723        C726   1.450       .  S
C724        C727   1.450       .  S
C725        N732   1.157       .  T
C726        N731   1.156       .  T
C727        N729   1.157       .  T
C728        N730   1.157       .  T
C733        C734   1.413       .  A
C733        C738   1.414       .  A
C734        C735   1.415       .  A
C734        C739   1.449       .  S
C735        C736   1.411       .  A
C735        C742   1.448       .  S
C736        C737   1.410       .  A
C737        C738   1.405       .  A
C737        C740   1.451   1_455  S
C738        C741   1.453   1_455  S
C739        N746   1.157       .  T
C740        N745   1.156       .  T
C741        N743   1.157       .  T
C742        N744   1.157   1_554  T
C747        C748   1.415       .  A
C747        C752   1.405   1_554  A
C748        C749   1.418       .  A
C748        C753   1.448       .  S
C749        C750   1.412       .  A
C749        C756   1.449       .  S
C750        C751   1.408       .  A
C751        C752   1.397   1_554  A
C751        C754   1.437   1_554  S
C752        C755   1.454       .  S
C753        N760   1.157       .  T
C754        N759   1.150       .  T
C755        N757   1.157       .  T
C756        N758   1.157       .  T
C761        C762   1.405       .  A
C761        C766   1.410       .  A
C762        C763   1.410       .  A
C762        C767   1.453       .  S
C763        C764   1.420       .  A
C763        C770   1.443       .  S
C764        C765   1.410       .  A
C765        C766   1.407       .  A
C765        C768   1.447       .  S
C766        C769   1.447       .  S
C767        N774   1.157       .  T
C768        N773   1.156       .  T
C769        N771   1.157       .  T
C770        N772   1.154       .  T
C775        C776   1.417       .  A
C775        C780   1.417       .  A
C776        C777   1.404   1_655  A
C776        C781   1.447   1_554  S
C777        C778   1.410   1_455  A
C777        C784   1.455       .  S
C778        C779   1.413       .  A
C779        C780   1.412       .  A
C779        C782   1.451       .  S
C780        C783   1.451       .  S
C781        N788   1.155       .  T
C782        N787   1.157       .  T
C783        N785   1.157       .  T
C784        N786   1.157   1_554  T
C789        C790   1.421       .  A
C789        C794   1.423       .  A
C790        C791   1.420       .  A
C790        C795   1.451       .  S
C791        C792   1.416       .  A
C791        C798   1.451       .  S
C792        C793   1.416       .  A
C793        C794   1.411       .  A
C793        C796   1.452       .  S
C794        C797   1.452   1_455  S
C795        N802   1.157       .  T
C796        N801   1.157       .  T
C797        N799   1.157       .  T
C798        N800   1.157       .  T
C803        C804   1.409       .  A
C803        C808   1.416       .  A
C804        C805   1.409       .  A
C804        C809   1.450       .  S
C805        C806   1.418       .  A
C805        C812   1.445   1_655  S
C806        C807   1.413       .  A
C807        C808   1.413       .  A
C807        C810   1.446       .  S
C808        C811   1.452       .  S
C809        N816   1.157       .  T
C810        N815   1.155       .  T
C811        N813   1.157       .  T
C812        N814   1.156       .  T
C817        C818   1.416       .  A
C817        C822   1.417       .  A
C818        C819   1.413       .  A
C818        C823   1.451       .  S
C819        C820   1.423       .  A
C819        C826   1.452       .  S
C820        C821   1.411       .  A
C821        C822   1.413       .  A
C821        C824   1.440       .  S
C822        C825   1.453       .  S
C823        N830   1.157       .  T
C824        N829   1.153       .  T
C825        N827   1.157       .  T
C826        N828   1.157       .  T
C831        C832   1.418       .  A
C831        C836   1.411       .  A
C832        C833   1.420       .  A
C832        C837   1.449       .  S
C833        C834   1.413       .  A
C833        C840   1.449       .  S
C834        C835   1.406       .  A
C835        C836   1.402       .  A
C835        C838   1.455       .  S
C836        C839   1.438       .  S
C837        N844   1.158       .  T
C838        N843   1.157       .  T
C839        N841   1.151       .  T
C840        N842   1.157       .  T
C845        C846   1.411       .  A
C845        C850   1.409       .  A
C846        C847   1.409       .  A
C846        C851   1.451       .  S
C847        C848   1.410       .  A
C847        C854   1.450       .  S
C848        C849   1.412       .  A
C849        C850   1.405       .  A
C849        C852   1.452       .  S
C850        C853   1.452       .  S
C851        N858   1.157       .  T
C852        N857   1.157       .  T
C853        N855   1.157       .  T
C854        N856   1.157       .  T
C859        C860   1.411       .  A
C859        C864   1.411       .  A
C860        C861   1.408       .  A
C860        C865   1.450       .  S
C861        C862   1.408       .  A
C861        C868   1.446       .  S
C862        C863   1.413       .  A
C863        C864   1.411       .  A
C863        C866   1.451       .  S
C864        C867   1.451       .  S
C865        N872   1.157       .  T
C866        N871   1.158       .  T
C867        N869   1.157       .  T
C868        N870   1.155       .  T
C873        C874   1.410       .  A
C873        C878   1.412       .  A
C874        C875   1.404       .  A
C874        C879   1.452       .  S
C875        C876   1.409       .  A
C875        C882   1.444       .  S
C876        C877   1.412       .  A
C877        C878   1.417       .  A
C877        C880   1.445       .  S
C878        C881   1.450       .  S
C879        N886   1.157       .  T
C880        N885   1.156       .  T
C881        N883   1.157       .  T
C882        N884   1.154       .  T
C887        C888   1.417       .  A
C887        C892   1.407       .  A
C888        C889   1.419       .  A
C888        C893   1.451       .  S
C889        C890   1.424       .  A
C889        C896   1.451       .  S
C890        C891   1.424       .  A
C891        C892   1.403       .  A
C891        C894   1.452       .  S
C892        C895   1.450       .  S
C893        N900   1.157   1_545  T
C894        N899   1.158       .  T
C895        N897   1.156       .  T
C896        N898   1.158       .  T
C901        C902   1.409       .  A
C901        C906   1.419       .  A
C902        C903   1.404       .  A
C902        C907   1.449   1_545  S
C903        C904   1.417       .  A
C903        C910   1.449   1_545  S
C904        C905   1.416       .  A
C905        C906   1.420       .  A
C905        C908   1.451       .  S
C906        C909   1.445       .  S
C907        N914   1.157       .  T
C908        N913   1.157       .  T
C909        N911   1.156       .  T
C910        N912   1.157       .  T
C915        C916   1.411       .  A
C915        C920   1.416       .  A
C916        C917   1.405       .  A
C916        C921   1.455       .  S
C917        C918   1.419   1_565  A
C917        C924   1.445       .  S
C918        C919   1.420       .  A
C919        C920   1.415   1_545  A
C919        C922   1.452       .  S
C920        C923   1.452   1_565  S
C921        N928   1.158       .  T
C922        N927   1.157       .  T
C923        N925   1.158       .  T
C924        N926   1.157       .  T
C929        C930   1.411       .  A
C929        C934   1.406       .  A
C930        C931   1.418       .  A
C930        C935   1.450       .  S
C931        C932   1.423       .  A
C931        C938   1.450       .  S
C932        C933   1.421       .  A
C933        C934   1.399       .  A
C933        C936   1.450       .  S
C934        C937   1.452       .  S
C935        N942   1.157       .  T
C936        N941   1.157       .  T
C937        N939   1.157       .  T
C938        N940   1.158       .  T
C943        C944   1.424       .  A
C943        C948   1.424   1_565  A
C944        C945   1.412       .  A
C944        C949   1.451       .  S
C945        C946   1.423       .  A
C945        C952   1.457       .  S
C946        C947   1.416   1_565  A
C947        C948   1.413       .  A
C947        C950   1.453       .  S
C948        C951   1.453       .  S
C949        N956   1.157       .  T
C950        N955   1.158       .  T
C951        N953   1.157       .  T
C952        N954   1.158       .  T
C957        C958   1.419       .  A
C957        C962   1.415       .  A
C958        C959   1.415       .  A
C958        C963   1.452       .  S
C959        C960   1.420       .  A
C959        C966   1.451       .  S
C960        C961   1.426       .  A
C961        C962   1.407       .  A
C961        C964   1.453       .  S
C962        C965   1.454       .  S
C963        N970   1.157       .  T
C964        N969   1.157       .  T
C965        N967   1.158       .  T
C966        N968   1.158       .  T
C971        C972   1.410       .  A
C971        C976   1.418       .  A
C972        C973   1.411       .  A
C972        C977   1.453       .  S
C973        C974   1.421       .  A
C973        C980   1.448       .  S
C974        C975   1.417       .  A
C975        C976   1.411       .  A
C975        C978   1.451       .  S
C976        C979   1.453       .  S
C977        N984   1.157       .  T
C978        N983   1.157       .  T
C979        N981   1.158       .  T
C980        N982   1.156       .  T
C985        C986   1.414       .  A
C985        C990   1.412       .  A
C986        C987   1.409       .  A
C986        C991   1.451       .  S
C987        C988   1.408       .  A
C987        C994   1.450       .  S
C988        C989   1.411       .  A
C989        C990   1.404       .  A
C989        C992   1.452       .  S
C990        C993   1.452       .  S
C991        N998   1.157       .  T
C992        N997   1.157       .  T
C993        N995   1.157       .  T
C994        N996   1.157       .  T
C999       C1000   1.415       .  A
C999       C1004   1.410       .  A
C1000      C1001   1.413       .  A
C1000      C1005   1.447       .  S
C1001      C1002   1.410       .  A
C1001      C1008   1.451       .  S
C1002      C1003   1.408       .  A
C1003      C1004   1.405       .  A
C1003      C1006   1.451       .  S
C1004      C1007   1.446       .  S
C1005      N1012   1.157       .  T
C1006      N1011   1.157   1_545  T
C1007      N1009   1.154       .  T
C1008      N1010   1.157       .  T
C1013      C1014   1.410       .  A
C1013      C1018   1.410       .  A
C1014      C1015   1.410       .  A
C1014      C1019   1.451       .  S
C1015      C1016   1.409       .  A
C1015      C1022   1.441       .  S
C1016      C1017   1.409       .  A
C1017      C1018   1.410       .  A
C1017      C1020   1.441       .  S
C1018      C1021   1.450       .  S
C1019      N1026   1.157       .  T
C1020      N1025   1.153       .  T
C1021      N1023   1.157       .  T
C1022      N1024   1.153       .  T
C1027      C1028   1.414       .  A
C1027      C1032   1.412       .  A
C1028      C1029   1.409       .  A
C1028      C1033   1.451       .  S
C1029      C1030   1.410       .  A
C1029      C1036   1.451       .  S
C1030      C1031   1.412       .  A
C1031      C1032   1.414       .  A
C1031      C1034   1.451       .  S
C1032      C1035   1.445       .  S
C1033      N1040   1.157       .  T
C1034      N1039   1.157       .  T
C1035      N1037   1.156       .  T
C1036      N1038   1.157       .  T
C1041      C1042   1.412       .  A
C1041      C1046   1.415       .  A
C1042      C1043   1.412       .  A
C1042      C1047   1.453       .  S
C1043      C1044   1.422       .  A
C1043      C1050   1.449       .  S
C1044      C1045   1.422       .  A
C1045      C1046   1.413       .  A
C1045      C1048   1.453       .  S
C1046      C1049   1.453       .  S
C1047      N1054   1.157       .  T
C1048      N1053   1.158       .  T
C1049      N1051   1.157       .  T
C1050      N1052   1.156       .  T
C1055      C1056   1.415       .  A
C1055      C1060   1.413       .  A
C1056      C1057   1.408       .  A
C1056      C1061   1.453       .  S
C1057      C1058   1.412       .  A
C1057      C1064   1.451       .  S
C1058      C1059   1.415       .  A
C1059      C1060   1.410       .  A
C1059      C1062   1.452       .  S
C1060      C1063   1.451       .  S
C1061      N1068   1.157       .  T
C1062      N1067   1.157       .  T
C1063      N1065   1.157       .  T
C1064      N1066   1.157       .  T
C1069      C1070   1.416       .  A
C1069      C1074   1.417   1_565  A
C1070      C1071   1.411       .  A
C1070      C1075   1.453       .  S
C1071      C1072   1.414       .  A
C1071      C1078   1.445       .  S
C1072      C1073   1.415   1_565  A
C1073      C1074   1.414       .  A
C1073      C1076   1.451       .  S
C1074      C1077   1.450       .  S
C1075      N1082   1.157       .  T
C1076      N1081   1.157       .  T
C1077      N1079   1.157       .  T
C1078      N1080   1.154       .  T
C1083      C1084   1.409       .  A
C1083      C1088   1.412       .  A
C1084      C1085   1.405       .  A
C1084      C1089   1.446       .  S
C1085      C1086   1.410       .  A
C1085      C1092   1.451       .  S
C1086      C1087   1.412       .  A
C1087      C1088   1.417       .  A
C1087      C1090   1.450       .  S
C1088      C1091   1.445       .  S
C1089      N1096   1.154       .  T
C1090      N1095   1.157       .  T
C1091      N1093   1.156       .  T
C1092      N1094   1.157       .  T
C1097      C1098   1.420       .  A
C1097      C1102   1.416       .  A
C1098      C1099   1.416       .  A
C1098      C1103   1.452       .  S
C1099      C1100   1.423       .  A
C1099      C1106   1.450       .  S
C1100      C1101   1.424       .  A
C1101      C1102   1.405       .  A
C1101      C1104   1.454       .  S
C1102      C1105   1.453       .  S
C1103      N1110   1.158       .  T
C1104      N1109   1.158       .  T
C1105      N1107   1.158       .  T
C1106      N1108   1.158       .  T
C1111      C1112   1.407   1_655  A
C1111      C1116   1.416       .  A
C1112      C1113   1.401       .  A
C1112      C1117   1.452       .  S
C1113      C1114   1.408       .  A
C1113      C1120   1.443       .  S
C1114      C1115   1.409       .  A
C1115      C1116   1.416   1_455  A
C1115      C1118   1.449       .  S
C1116      C1119   1.449       .  S
C1117      N1124   1.157       .  T
C1118      N1123   1.158       .  T
C1119      N1121   1.157       .  T
C1120      N1122   1.153       .  T
C1125      C1126   1.412       .  A
C1125      C1130   1.416       .  A
C1126      C1127   1.413       .  A
C1126      C1131   1.451       .  S
C1127      C1128   1.415       .  A
C1127      C1134   1.449       .  S
C1128      C1129   1.411       .  A
C1129      C1130   1.408       .  A
C1129      C1132   1.451       .  S
C1130      C1133   1.451       .  S
C1131      N1138   1.157       .  T
C1132      N1137   1.157       .  T
C1133      N1135   1.157       .  T
C1134      N1136   1.157       .  T
C1139      C1140   1.417       .  A
C1139      C1144   1.408       .  A
C1140      C1141   1.424       .  A
C1140      C1145   1.448   1_655  S
C1141      C1142   1.411       .  A
C1141      C1148   1.446       .  S
C1142      C1143   1.403       .  A
C1143      C1144   1.401       .  A
C1143      C1146   1.436       .  S
C1144      C1147   1.450       .  S
C1145      N1152   1.157       .  T
C1146      N1151   1.151       .  T
C1147      N1149   1.157       .  T
C1148      N1150   1.157       .  T
C1153      C1154   1.411       .  A
C1153      C1158   1.414       .  A
C1154      C1155   1.412       .  A
C1154      C1159   1.449       .  S
C1155      C1156   1.412       .  A
C1155      C1162   1.450       .  S
C1156      C1157   1.410       .  A
C1157      C1158   1.410       .  A
C1157      C1160   1.446       .  S
C1158      C1161   1.452       .  S
C1159      N1166   1.157       .  T
C1160      N1165   1.158       .  T
C1161      N1163   1.157       .  T
C1162      N1164   1.157       .  T
C1167      C1168   1.419       .  A
C1167      C1172   1.419       .  A
C1168      C1169   1.414       .  A
C1168      C1173   1.450       .  S
C1169      C1170   1.416       .  A
C1169      C1176   1.452       .  S
C1170      C1171   1.419       .  A
C1171      C1172   1.412       .  A
C1171      C1174   1.453       .  S
C1172      C1175   1.448       .  S
C1173      N1180   1.156       .  T
C1174      N1179   1.157       .  T
C1175      N1177   1.156       .  T
C1176      N1178   1.157   1_455  T
C1181      C1182   1.411       .  A
C1181      C1186   1.416       .  A
C1182      C1183   1.409       .  A
C1182      C1187   1.446       .  S
C1183      C1184   1.412       .  A
C1183      C1190   1.452       .  S
C1184      C1185   1.410       .  A
C1185      C1186   1.417       .  A
C1185      C1188   1.449       .  S
C1186      C1189   1.446       .  S
C1187      N1194   1.155       .  T
C1188      N1193   1.157       .  T
C1189      N1191   1.156       .  T
C1190      N1192   1.157       .  T
C1195      C1196   1.417       .  A
C1195      C1200   1.414       .  A
C1196      C1197   1.413       .  A
C1196      C1201   1.451       .  S
C1197      C1198   1.412       .  A
C1197      C1204   1.451       .  S
C1198      C1199   1.410       .  A
C1199      C1200   1.408       .  A
C1199      C1202   1.451       .  S
C1200      C1203   1.448       .  S
C1201      N1208   1.157       .  T
C1202      N1207   1.157       .  T
C1203      N1205   1.156   1_455  T
C1204      N1206   1.157       .  T
C1209      C1210   1.416       .  A
C1209      C1214   1.416       .  A
C1210      C1211   1.406       .  A
C1210      C1215   1.454       .  S
C1211      C1212   1.415       .  A
C1211      C1218   1.449       .  S
C1212      C1213   1.414       .  A
C1213      C1214   1.413       .  A
C1213      C1216   1.453       .  S
C1214      C1217   1.446       .  S
C1215      N1222   1.157   1_565  T
C1216      N1221   1.157       .  T
C1217      N1219   1.156       .  T
C1218      N1220   1.156   1_565  T
C1223      C1224   1.426       .  A
C1223      C1228   1.418       .  A
C1224      C1225   1.401       .  A
C1224      C1229   1.454       .  S
C1225      C1226   1.404       .  A
C1225      C1232   1.450       .  S
C1226      C1227   1.419       .  A
C1227      C1228   1.413       .  A
C1227      C1230   1.451       .  S
C1228      C1231   1.452       .  S
C1229      N1236   1.158       .  T
C1230      N1235   1.157       .  T
C1231      N1233   1.158       .  T
C1232      N1234   1.156       .  T
C1237      C1238   1.409       .  A
C1237      C1242   1.411       .  A
C1238      C1239   1.405       .  A
C1238      C1243   1.452       .  S
C1239      C1240   1.415       .  A
C1239      C1246   1.447       .  S
C1240      C1241   1.414       .  A
C1241      C1242   1.405       .  A
C1241      C1244   1.451       .  S
C1242      C1245   1.449       .  S
C1243      N1250   1.157       .  T
C1244      N1249   1.158       .  T
C1245      N1247   1.157   1_545  T
C1246      N1248   1.155       .  T
C1251      C1252   1.420   1_545  A
C1251      C1256   1.419       .  A
C1252      C1253   1.407       .  A
C1252      C1257   1.454       .  S
C1253      C1254   1.417   1_565  A
C1253      C1260   1.452       .  S
C1254      C1255   1.415       .  A
C1255      C1256   1.411       .  A
C1255      C1258   1.453       .  S
C1256      C1259   1.449   1_554  S
C1257      N1264   1.158       .  T
C1258      N1263   1.157       .  T
C1259      N1261   1.156       .  T
C1260      N1262   1.157       .  T
C1265      C1266   1.404       .  A
C1265      C1270   1.413       .  A
C1266      C1267   1.404   1_554  A
C1266      C1271   1.451   1_554  S
C1267      C1268   1.415   1_556  A
C1267      C1274   1.450       .  S
C1268      C1269   1.408       .  A
C1269      C1270   1.403       .  A
C1269      C1272   1.451   1_565  S
C1270      C1273   1.451       .  S
C1271      N1278   1.157       .  T
C1272      N1277   1.157       .  T
C1273      N1275   1.157   1_565  T
C1274      N1276   1.157       .  T
C1279      C1280   1.411       .  A
C1279      C1284   1.407       .  A
C1280      C1281   1.412       .  A
C1280      C1285   1.449       .  S
C1281      C1282   1.412       .  A
C1281      C1288   1.447       .  S
C1282      C1283   1.421       .  A
C1283      C1284   1.410       .  A
C1283      C1286   1.448       .  S
C1284      C1287   1.452       .  S
C1285      N1292   1.157       .  T
C1286      N1291   1.156       .  T
C1287      N1289   1.157       .  T
C1288      N1290   1.156       .  T
C1293      C1294   1.410       .  A
C1293      C1298   1.413       .  A
C1294      C1295   1.405       .  A
C1294      C1299   1.453       .  S
C1295      C1296   1.409       .  A
C1295      C1302   1.442       .  S
C1296      C1297   1.408       .  A
C1297      C1298   1.415       .  A
C1297      C1300   1.444       .  S
C1298      C1301   1.449       .  S
C1299      N1306   1.157       .  T
C1300      N1305   1.155       .  T
C1301      N1303   1.157       .  T
C1302      N1304   1.154       .  T
C1307      C1308   1.413       .  A
C1307      C1312   1.412       .  A
C1308      C1309   1.414       .  A
C1308      C1313   1.445       .  S
C1309      C1310   1.409       .  A
C1309      C1316   1.450       .  S
C1310      C1311   1.411       .  A
C1311      C1312   1.407       .  A
C1311      C1314   1.452       .  S
C1312      C1315   1.452       .  S
C1313      N1320   1.156       .  T
C1314      N1319   1.157       .  T
C1315      N1317   1.157       .  T
C1316      N1318   1.157       .  T
C1321      C1322   1.419       .  A
C1321      C1326   1.419       .  A
C1322      C1323   1.416       .  A
C1322      C1327   1.452       .  S
C1323      C1324   1.418       .  A
C1323      C1330   1.449       .  S
C1324      C1325   1.422       .  A
C1325      C1326   1.410       .  A
C1325      C1328   1.454       .  S
C1326      C1329   1.450       .  S
C1327      N1334   1.158       .  T
C1328      N1333   1.158       .  T
C1329      N1331   1.156       .  T
C1330      N1332   1.157       .  T
C1335      C1336   1.412       .  A
C1335      C1340   1.411       .  A
C1336      C1337   1.406       .  A
C1336      C1341   1.454       .  S
C1337      C1338   1.414       .  A
C1337      C1344   1.448       .  S
C1338      C1339   1.417       .  A
C1339      C1340   1.411       .  A
C1339      C1342   1.451       .  S
C1340      C1343   1.451       .  S
C1341      N1348   1.157       .  T
C1342      N1347   1.157       .  T
C1343      N1345   1.157       .  T
C1344      N1346   1.156       .  T
C1349      C1350   1.416       .  A
C1349      C1354   1.412       .  A
C1350      C1351   1.414       .  A
C1350      C1355   1.452       .  S
C1351      C1352   1.420       .  A
C1351      C1358   1.451       .  S
C1352      C1353   1.422       .  A
C1353      C1354   1.412       .  A
C1353      C1356   1.450       .  S
C1354      C1357   1.453       .  S
C1355      N1362   1.157       .  T
C1356      N1361   1.156       .  T
C1357      N1359   1.157       .  T
C1358      N1360   1.158       .  T
C1363      C1364   1.412       .  A
C1363      C1368   1.408   1_655  A
C1364      C1365   1.415   1_655  A
C1364      C1369   1.450       .  S
C1365      C1366   1.412       .  A
C1365      C1372   1.447       .  S
C1366      C1367   1.414       .  A
C1367      C1368   1.407       .  A
C1367      C1370   1.448       .  S
C1368      C1371   1.451       .  S
C1369      N1376   1.157       .  T
C1370      N1375   1.155       .  T
C1371      N1373   1.157       .  T
C1372      N1374   1.156       .  T
C1377      C1378   1.419       .  A
C1377      C1382   1.413       .  A
C1378      C1379   1.421       .  A
C1378      C1383   1.447       .  S
C1379      C1380   1.414       .  A
C1379      C1386   1.448       .  S
C1380      C1381   1.405       .  A
C1381      C1382   1.404       .  A
C1381      C1384   1.450       .  S
C1382      C1385   1.441       .  S
C1383      N1390   1.157       .  T
C1384      N1389   1.157       .  T
C1385      N1387   1.154       .  T
C1386      N1388   1.157       .  T
C1391      C1392   1.408       .  A
C1391      C1396   1.413       .  A
C1392      C1393   1.409       .  A
C1392      C1397   1.452       .  S
C1393      C1394   1.420       .  A
C1393      C1400   1.446       .  S
C1394      C1395   1.414       .  A
C1395      C1396   1.415       .  A
C1395      C1398   1.443       .  S
C1396      C1399   1.452       .  S
C1397      N1404   1.157       .  T
C1398      N1403   1.155       .  T
C1399      N1401   1.157       .  T
C1400      N1402   1.155       .  T
C1405      C1406   1.416       .  A
C1405      C1410   1.415       .  A
C1406      C1407   1.411       .  A
C1406      C1411   1.447       .  S
C1407      C1408   1.413       .  A
C1407      C1414   1.453       .  S
C1408      C1409   1.415       .  A
C1409      C1410   1.411       .  A
C1409      C1412   1.450       .  S
C1410      C1413   1.452       .  S
C1411      N1418   1.156       .  T
C1412      N1417   1.157       .  T
C1413      N1415   1.157       .  T
C1414      N1416   1.157       .  T
C1419      C1420   1.412       .  A
C1419      C1424   1.410       .  A
C1420      C1421   1.421       .  A
C1420      C1425   1.447       .  S
C1421      C1422   1.416       .  A
C1421      C1428   1.449       .  S
C1422      C1423   1.407       .  A
C1423      C1424   1.406       .  A
C1423      C1426   1.452       .  S
C1424      C1427   1.439       .  S
C1425      N1432   1.157       .  T
C1426      N1431   1.157   1_545  T
C1427      N1429   1.152       .  T
C1428      N1430   1.157       .  T
C1433      C1434   1.412       .  A
C1433      C1438   1.420       .  A
C1434      C1435   1.412       .  A
C1434      C1439   1.454   1_565  S
C1435      C1436   1.422       .  A
C1435      C1442   1.448   1_565  S
C1436      C1437   1.417       .  A
C1437      C1438   1.417       .  A
C1437      C1440   1.451       .  S
C1438      C1441   1.452       .  S
C1439      N1446   1.158       .  T
C1440      N1445   1.157       .  T
C1441      N1443   1.157       .  T
C1442      N1444   1.156       .  T
C1447      C1448   1.409       .  A
C1447      C1452   1.413       .  A
C1448      C1449   1.405       .  A
C1448      C1453   1.447       .  S
C1449      C1450   1.410       .  A
C1449      C1456   1.451       .  S
C1450      C1451   1.414       .  A
C1451      C1452   1.419       .  A
C1451      C1454   1.449   1_655  S
C1452      C1455   1.447       .  S
C1453      N1460   1.155       .  T
C1454      N1459   1.157       .  T
C1455      N1457   1.157       .  T
C1456      N1458   1.157       .  T
C1461      C1462   1.417       .  A
C1461      C1466   1.417       .  A
C1462      C1463   1.413       .  A
C1462      C1467   1.451       .  S
C1463      C1464   1.415       .  A
C1463      C1470   1.450       .  S
C1464      C1465   1.417       .  A
C1465      C1466   1.412       .  A
C1465      C1468   1.449       .  S
C1466      C1469   1.453       .  S
C1467      N1474   1.157       .  T
C1468      N1473   1.157       .  T
C1469      N1471   1.158       .  T
C1470      N1472   1.156       .  T
C1475      C1476   1.412       .  A
C1475      C1480   1.413       .  A
C1476      C1477   1.410       .  A
C1476      C1481   1.451       .  S
C1477      C1478   1.414       .  A
C1477      C1484   1.451       .  S
C1478      C1479   1.412       .  A
C1479      C1480   1.412       .  A
C1479      C1482   1.451       .  S
C1480      C1483   1.449       .  S
C1481      N1488   1.157       .  T
C1482      N1487   1.157       .  T
C1483      N1485   1.157       .  T
C1484      N1486   1.157       .  T
C1489      C1490   1.410       .  A
C1489      C1494   1.410       .  A
C1490      C1491   1.410       .  A
C1490      C1495   1.451       .  S
C1491      C1492   1.410       .  A
C1491      C1498   1.445       .  S
C1492      C1493   1.414       .  A
C1493      C1494   1.413       .  A
C1493      C1496   1.448       .  S
C1494      C1497   1.450       .  S
C1495      N1502   1.157       .  T
C1496      N1501   1.156       .  T
C1497      N1499   1.157       .  T
C1498      N1500   1.155       .  T
C1503      C1504   1.416       .  A
C1503      C1508   1.414       .  A
C1504      C1505   1.411       .  A
C1504      C1509   1.451       .  S
C1505      C1506   1.408       .  A
C1505      C1512   1.451       .  S
C1506      C1507   1.410       .  A
C1507      C1508   1.416       .  A
C1507      C1510   1.452   1_565  S
C1508      C1511   1.444       .  S
C1509      N1516   1.157       .  T
C1510      N1515   1.157       .  T
C1511      N1513   1.156       .  T
C1512      N1514   1.157       .  T
C1517      C1518   1.419       .  A
C1517      C1522   1.415       .  A
C1518      C1519   1.417       .  A
C1518      C1523   1.451       .  S
C1519      C1520   1.415       .  A
C1519      C1526   1.450   1_545  S
C1520      C1521   1.418       .  A
C1521      C1522   1.408       .  A
C1521      C1524   1.449       .  S
C1522      C1525   1.452       .  S
C1523      N1530   1.157       .  T
C1524      N1529   1.156       .  T
C1525      N1527   1.156       .  T
C1526      N1528   1.157       .  T
C1531      C1532   1.412       .  A
C1531      C1536   1.416       .  A
C1532      C1533   1.407       .  A
C1532      C1537   1.442       .  S
C1533      C1534   1.414       .  A
C1533      C1540   1.455       .  S
C1534      C1535   1.416       .  A
C1535      C1536   1.420       .  A
C1535      C1538   1.450       .  S
C1536      C1539   1.446       .  S
C1537      N1544   1.152       .  T
C1538      N1543   1.157       .  T
C1539      N1541   1.157       .  T
C1540      N1542   1.158       .  T
C1545      C1546   1.412       .  A
C1545      C1550   1.414       .  A
C1546      C1547   1.411       .  A
C1546      C1551   1.451       .  S
C1547      C1548   1.416       .  A
C1547      C1554   1.452       .  S
C1548      C1549   1.414       .  A
C1549      C1550   1.408       .  A
C1549      C1552   1.452       .  S
C1550      C1553   1.452       .  S
C1551      N1558   1.157       .  T
C1552      N1557   1.157       .  T
C1553      N1555   1.157       .  T
C1554      N1556   1.157       .  T
C1559      C1560   1.416       .  A
C1559      C1564   1.414       .  A
C1560      C1561   1.419   1_545  A
C1560      C1565   1.450       .  S
C1561      C1562   1.418       .  A
C1561      C1568   1.450       .  S
C1562      C1563   1.419       .  A
C1563      C1564   1.407   1_565  A
C1563      C1566   1.455       .  S
C1564      C1567   1.452       .  S
C1565      N1572   1.157       .  T
C1566      N1571   1.158       .  T
C1567      N1569   1.156       .  T
C1568      N1570   1.157       .  T
C1573      C1574   1.416       .  A
C1573      C1578   1.425       .  A
C1574      C1575   1.410       .  A
C1574      C1579   1.451       .  S
C1575      C1576   1.421       .  A
C1575      C1582   1.453       .  S
C1576      C1577   1.416       .  A
C1577      C1578   1.413       .  A
C1577      C1580   1.453       .  S
C1578      C1581   1.452       .  S
C1579      N1586   1.158       .  T
C1580      N1585   1.158       .  T
C1581      N1583   1.157       .  T
C1582      N1584   1.157       .  T
C1587      C1588   1.412       .  A
C1587      C1592   1.416       .  A
C1588      C1589   1.415       .  A
C1588      C1593   1.449       .  S
C1589      C1590   1.410       .  A
C1589      C1596   1.444       .  S
C1590      C1591   1.408       .  A
C1591      C1592   1.410       .  A
C1591      C1594   1.447       .  S
C1592      C1595   1.451       .  S
C1593      N1600   1.157       .  T
C1594      N1599   1.156       .  T
C1595      N1597   1.157       .  T
C1596      N1598   1.156       .  T
C1601      C1602   1.417       .  A
C1601      C1606   1.417       .  A
C1602      C1603   1.422       .  A
C1602      C1607   1.451       .  S
C1603      C1604   1.421       .  A
C1603      C1610   1.450       .  S
C1604      C1605   1.421       .  A
C1605      C1606   1.410       .  A
C1605      C1608   1.454       .  S
C1606      C1609   1.451       .  S
C1607      N1614   1.157       .  T
C1608      N1613   1.158   1_655  T
C1609      N1611   1.157       .  T
C1610      N1612   1.157       .  T
C1615      C1616   1.410       .  A
C1615      C1620   1.416       .  A
C1616      C1617   1.410       .  A
C1616      C1621   1.450       .  S
C1617      C1618   1.416       .  A
C1617      C1624   1.451       .  S
C1618      C1619   1.412       .  A
C1619      C1620   1.407       .  A
C1619      C1622   1.452       .  S
C1620      C1623   1.453       .  S
C1621      N1628   1.157       .  T
C1622      N1627   1.157       .  T
C1623      N1625   1.157       .  T
C1624      N1626   1.157       .  T
C1629      C1630   1.416       .  A
C1629      C1634   1.414       .  A
C1630      C1631   1.409       .  A
C1630      C1635   1.452       .  S
C1631      C1632   1.412       .  A
C1631      C1638   1.453       .  S
C1632      C1633   1.411       .  A
C1633      C1634   1.413       .  A
C1633      C1636   1.448       .  S
C1634      C1637   1.451       .  S
C1635      N1642   1.157       .  T
C1636      N1641   1.156       .  T
C1637      N1639   1.157       .  T
C1638      N1640   1.157       .  T
C1643      C1644   1.413       .  A
C1643      C1648   1.410       .  A
C1644      C1645   1.416       .  A
C1644      C1649   1.450       .  S
C1645      C1646   1.415       .  A
C1645      C1652   1.449       .  S
C1646      C1647   1.409       .  A
C1647      C1648   1.404       .  A
C1647      C1650   1.443       .  S
C1648      C1651   1.452       .  S
C1649      N1656   1.157       .  T
C1650      N1655   1.154       .  T
C1651      N1653   1.157       .  T
C1652      N1654   1.157       .  T
C1657      C1658   1.406       .  A
C1657      C1662   1.412       .  A
C1658      C1659   1.414       .  A
C1658      C1663   1.452       .  S
C1659      C1660   1.423       .  A
C1659      C1666   1.444       .  S
C1660      C1661   1.412       .  A
C1661      C1662   1.407       .  A
C1661      C1664   1.447       .  S
C1662      C1665   1.449       .  S
C1663      N1670   1.157       .  T
C1664      N1669   1.157       .  T
C1665      N1667   1.157       .  T
C1666      N1668   1.154       .  T
C1671      C1672   1.418       .  A
C1671      C1676   1.419   1_554  A
C1672      C1673   1.419       .  A
C1672      C1677   1.448       .  S
C1673      C1674   1.419       .  A
C1673      C1680   1.452       .  S
C1674      C1675   1.427   1_554  A
C1675      C1676   1.412       .  A
C1675      C1678   1.455       .  S
C1676      C1679   1.454       .  S
C1677      N1684   1.156       .  T
C1678      N1683   1.158       .  T
C1679      N1681   1.157       .  T
C1680      N1682   1.158       .  T
C1685      C1686   1.414       .  A
C1685      C1690   1.409       .  A
C1686      C1687   1.412       .  A
C1686      C1691   1.453       .  S
C1687      C1688   1.416       .  A
C1687      C1694   1.449       .  S
C1688      C1689   1.421       .  A
C1689      C1690   1.409       .  A
C1689      C1692   1.447   1_554  S
C1690      C1693   1.454   1_554  S
C1691      N1698   1.157       .  T
C1692      N1697   1.156       .  T
C1693      N1695   1.157       .  T
C1694      N1696   1.157       .  T
C1699      C1700   1.411       .  A
C1699      C1704   1.417       .  A
C1700      C1701   1.406       .  A
C1700      C1705   1.451       .  S
C1701      C1702   1.421       .  A
C1701      C1708   1.451       .  S
C1702      C1703   1.421       .  A
C1703      C1704   1.417       .  A
C1703      C1706   1.450       .  S
C1704      C1707   1.450       .  S
C1705      N1712   1.157       .  T
C1706      N1711   1.157       .  T
C1707      N1709   1.157       .  T
C1708      N1710   1.158       .  T
C1713      C1714   1.423       .  A
C1713      C1718   1.422       .  A
C1714      C1715   1.423       .  A
C1714      C1719   1.451       .  S
C1715      C1716   1.421       .  A
C1715      C1722   1.451       .  S
C1716      C1717   1.424       .  A
C1717      C1718   1.412       .  A
C1717      C1720   1.456       .  S
C1718      C1721   1.449       .  S
C1719      N1726   1.157       .  T
C1720      N1725   1.157       .  T
C1721      N1723   1.158       .  T
C1722      N1724   1.158       .  T
C1727      C1728   1.402       .  A
C1727      C1732   1.412       .  A
C1728      C1729   1.399       .  A
C1728      C1733   1.444       .  S
C1729      C1730   1.421       .  A
C1729      C1736   1.451       .  S
C1730      C1731   1.431       .  A
C1731      C1732   1.421       .  A
C1731      C1734   1.450       .  S
C1732      C1735   1.450       .  S
C1733      N1740   1.155       .  T
C1734      N1739   1.158       .  T
C1735      N1737   1.157       .  T
C1736      N1738   1.158       .  T
C1741      C1742   1.417       .  A
C1741      C1746   1.419       .  A
C1742      C1743   1.415       .  A
C1742      C1747   1.449       .  S
C1743      C1744   1.413       .  A
C1743      C1750   1.448       .  S
C1744      C1745   1.408       .  A
C1745      C1746   1.407       .  A
C1745      C1748   1.452       .  S
C1746      C1749   1.445       .  S
C1747      N1754   1.157       .  T
C1748      N1753   1.156       .  T
C1749      N1751   1.157       .  T
C1750      N1752   1.157       .  T
C1755      C1756   1.413   1_655  A
C1755      C1760   1.414       .  A
C1756      C1757   1.410       .  A
C1756      C1761   1.452       .  S
C1757      C1758   1.414       .  A
C1757      C1764   1.452       .  S
C1758      C1759   1.410   1_455  A
C1759      C1760   1.413       .  A
C1759      C1762   1.450       .  S
C1760      C1763   1.450       .  S
C1761      N1768   1.157       .  T
C1762      N1767   1.157       .  T
C1763      N1765   1.157       .  T
C1764      N1766   1.157       .  T
C1769      C1770   1.412       .  A
C1769      C1774   1.413       .  A
C1770      C1771   1.405       .  A
C1770      C1775   1.445       .  S
C1771      C1772   1.410       .  A
C1771      C1778   1.453       .  S
C1772      C1773   1.416       .  A
C1773      C1774   1.419       .  A
C1773      C1776   1.450       .  S
C1774      C1777   1.447       .  S
C1775      N1782   1.154       .  T
C1776      N1781   1.157       .  T
C1777      N1779   1.157       .  T
C1778      N1780   1.157       .  T
C1783      C1784   1.417       .  A
C1783      C1788   1.414       .  A
C1784      C1785   1.403       .  A
C1784      C1789   1.451       .  S
C1785      C1786   1.404       .  A
C1785      C1792   1.447       .  S
C1786      C1787   1.407       .  A
C1787      C1788   1.411       .  A
C1787      C1790   1.447       .  S
C1788      C1791   1.450       .  S
C1789      N1796   1.157       .  T
C1790      N1795   1.157       .  T
C1791      N1793   1.157       .  T
C1792      N1794   1.157       .  T
C1797      C1798   1.415       .  A
C1797      C1802   1.418       .  A
C1798      C1799   1.409       .  A
C1798      C1803   1.451       .  S
C1799      C1800   1.417       .  A
C1799      C1806   1.453       .  S
C1800      C1801   1.415       .  A
C1801      C1802   1.405       .  A
C1801      C1804   1.454       .  S
C1802      C1805   1.450       .  S
C1803      N1810   1.157       .  T
C1804      N1809   1.158       .  T
C1805      N1807   1.157       .  T
C1806      N1808   1.158       .  T
C1811      C1812   1.415       .  A
C1811      C1816   1.411       .  A
C1812      C1813   1.417   1_565  A
C1812      C1817   1.450       .  S
C1813      C1814   1.413       .  A
C1813      C1820   1.446       .  S
C1814      C1815   1.408       .  A
C1815      C1816   1.402   1_545  A
C1815      C1818   1.446       .  S
C1816      C1819   1.450       .  S
C1817      N1824   1.157       .  T
C1818      N1823   1.154       .  T
C1819      N1821   1.156       .  T
C1820      N1822   1.157       .  T
C1825      C1826   1.410       .  A
C1825      C1830   1.411       .  A
C1826      C1827   1.407       .  A
C1826      C1831   1.449       .  S
C1827      C1828   1.410       .  A
C1827      C1834   1.451       .  S
C1828      C1829   1.410       .  A
C1829      C1830   1.407       .  A
C1829      C1832   1.450       .  S
C1830      C1833   1.452       .  S
C1831      N1838   1.157       .  T
C1832      N1837   1.157       .  T
C1833      N1835   1.157       .  T
C1834      N1836   1.157       .  T
C1839      C1840   1.412       .  A
C1839      C1844   1.409       .  A
C1840      C1841   1.411       .  A
C1840      C1845   1.450       .  S
C1841      C1842   1.410       .  A
C1841      C1848   1.446       .  S
C1842      C1843   1.413       .  A
C1843      C1844   1.407       .  A
C1843      C1846   1.449       .  S
C1844      C1847   1.451       .  S
C1845      N1852   1.157       .  T
C1846      N1851   1.157       .  T
C1847      N1849   1.157       .  T
C1848      N1850   1.156       .  T
C1853      C1854   1.409       .  A
C1853      C1858   1.413       .  A
C1854      C1855   1.409       .  A
C1854      C1859   1.451   1_655  S
C1855      C1856   1.414       .  A
C1855      C1862   1.450   1_655  S
C1856      C1857   1.409       .  A
C1857      C1858   1.410       .  A
C1857      C1860   1.451       .  S
C1858      C1861   1.450       .  S
C1859      N1866   1.157       .  T
C1860      N1865   1.157       .  T
C1861      N1863   1.157       .  T
C1862      N1864   1.157   1_545  T
C1867      C1868   1.409       .  A
C1867      C1872   1.414       .  A
C1868      C1869   1.411       .  A
C1868      C1873   1.448       .  S
C1869      C1870   1.412       .  A
C1869      C1876   1.451   1_565  S
C1870      C1871   1.409       .  A
C1871      C1872   1.407       .  A
C1871      C1874   1.452       .  S
C1872      C1875   1.452       .  S
C1873      N1880   1.157       .  T
C1874      N1879   1.157       .  T
C1875      N1877   1.157       .  T
C1876      N1878   1.157       .  T
C1881      C1882   1.413       .  A
C1881      C1886   1.416       .  A
C1882      C1883   1.405       .  A
C1882      C1887   1.449       .  S
C1883      C1884   1.409       .  A
C1883      C1890   1.450       .  S
C1884      C1885   1.409       .  A
C1885      C1886   1.411       .  A
C1885      C1888   1.451       .  S
C1886      C1889   1.447       .  S
C1887      N1894   1.157       .  T
C1888      N1893   1.157       .  T
C1889      N1891   1.156       .  T
C1890      N1892   1.157       .  T
C1895      C1896   1.416       .  A
C1895      C1900   1.416       .  A
C1896      C1897   1.411       .  A
C1896      C1901   1.452       .  S
C1897      C1898   1.416       .  A
C1897      C1904   1.451       .  S
C1898      C1899   1.413       .  A
C1899      C1900   1.410       .  A
C1899      C1902   1.452       .  S
C1900      C1903   1.449       .  S
C1901      N1908   1.157       .  T
C1902      N1907   1.157       .  T
C1903      N1905   1.156       .  T
C1904      N1906   1.157       .  T
