geometry optimzed in LAMMPS
_audit_creation_date              2020-11-30 
_audit_creation_method            'lammps2cif' 
_symmetry_space_group_name_H-M    'P1' 
_symmetry_Int_Tables_number       1 
_symmetry_cell_setting            triclinic 
loop_ 
_symmetry_equiv_pos_as_xyz 
  x,y,z 
_cell_length_a                    30.15431602 
_cell_length_b                    30.053233673907783 
_cell_length_c                    31.45696442315502 
_cell_angle_alpha                 91.25621423387754 
_cell_angle_beta                  89.54740169090141 
_cell_angle_gamma                 89.8887187524395 
loop_ 
_atom_site_label 
_atom_site_type_symbol 
_atom_site_fract_x 
_atom_site_fract_y 
_atom_site_fract_z 
_atom_site_charge 
O1          O  0.04865602  0.96397440  0.98929361    -0.73000
O2          O  0.92459468  0.94950798  0.95294047    -0.74000
O3          O  0.98786144  0.01876380  0.94469669    -0.62600
O4          O  0.98366286  0.89723177  0.99912651    -0.71000
O5          O  0.95980922  0.92953652  0.05928593    -0.70600
O6          O  0.96406616  0.04784673  0.00617562    -0.61900
O7          O  0.89887582  0.97943091  0.01309937    -0.74400
O8          O  0.02781496  0.99412715  0.05107198    -0.73100
Cu9        Cu  0.98722429  0.95660378  0.96946177     1.04600
Cu10       Cu  0.96213515  0.98926999  0.03451581     1.04300
C11         C  0.05845693  0.97861145  0.02627752     0.93200
C12         C  0.89189301  0.96002002  0.97703492     0.92300
C13         C  0.97477118  0.05238729  0.96720703     0.84400
C14         C  0.96918326  0.89465076  0.03739380     0.90700
O15         O  0.55868063  0.55584343  0.73108554    -0.73000
O16         O  0.55993982  0.42803756  0.69520314    -0.74000
O17         O  0.49447385  0.49575976  0.69469734    -0.62600
O18         O  0.62257745  0.48372682  0.73239134    -0.71000
O19         O  0.59923704  0.46750925  0.79728497    -0.70600
O20         O  0.47334590  0.47626618  0.75920889    -0.61900
O21         O  0.53984002  0.40768433  0.75971689    -0.74400
O22         O  0.53572060  0.53824562  0.79563455    -0.73100
Cu23       Cu  0.55948206  0.49195662  0.71120979     1.04600
Cu24       Cu  0.53588934  0.47216769  0.78017498     1.04300
C25         C  0.54749053  0.56764704  0.76889670     0.93200
C26         C  0.55331199  0.39750989  0.72201246     0.92300
C27         C  0.46358751  0.48586934  0.72103783     0.84400
C28         C  0.63056534  0.47045983  0.77005354     0.90700
C29         C  0.38301718  0.93864347  0.10848603    -0.02600
C30         C  0.44974783  0.14650363  0.35962562    -0.02600
C31         C  0.58607224  0.89608817  0.85518917    -0.02600
C32         C  0.65171053  0.09370725  0.60787476    -0.02600
O33         O  0.98600944  0.06709274  0.47460161    -0.73000
O34         O  0.11262741  0.06509829  0.43620788    -0.74000
O35         O  0.04199547  0.00280888  0.43018232    -0.62600
O36         O  0.05918692  0.12773810  0.48142375    -0.71000
O37         O  0.07566962  0.09702382  0.54252354    -0.70600
O38         O  0.06421124  0.97541837  0.49141943    -0.61900
O39         O  0.13321038  0.03896820  0.49848214    -0.74400
O40         O  0.00427479  0.03617500  0.53519339    -0.73100
Cu41       Cu  0.04890992  0.06652477  0.45342737     1.04600
Cu42       Cu  0.06964736  0.03565424  0.51892412     1.04300
C43         C  0.97488917  0.05332622  0.51127539     0.93200
C44         C  0.14304129  0.05347093  0.46164974     0.92300
C45         C  0.05303385  0.96957070  0.45268559     0.84400
C46         C  0.07186941  0.13163799  0.52017794     0.90700
O47         O  0.42054644  0.56767511  0.30426152    -0.73000
O48         O  0.54598684  0.56664065  0.26523474    -0.74000
O49         O  0.47487841  0.62883034  0.26200247    -0.62600
O50         O  0.48985238  0.50420124  0.30651744    -0.71000
O51         O  0.46845193  0.47754595  0.24389661    -0.70600
O52         O  0.45550791  0.59975919  0.19967402    -0.61900
O53         O  0.52649979  0.53808988  0.20268297    -0.74400
O54         O  0.39852951  0.54128961  0.24148701    -0.73100
Cu55       Cu  0.48373362  0.56766418  0.28665978     1.04600
Cu56       Cu  0.46172153  0.53798108  0.21980131     1.04300
C57         C  0.38958224  0.55627583  0.27895980     0.93200
C58         C  0.55645463  0.55303151  0.22778002     0.92300
C59         C  0.46145638  0.63376856  0.22384008     0.84400
C60         C  0.48042402  0.47097213  0.28209771     0.90700
C61         C  0.13538816  0.43979257  0.64891827    -0.02600
C62         C  0.92521604  0.37466636  0.88370956    -0.02600
C63         C  0.08415625  0.63696952  0.39731637    -0.02600
C64         C  0.88047945  0.59008164  0.14069181    -0.02600
C65         C  0.04948514  0.61932273  0.36332449    -0.20000
C66         C  0.00373647  0.63147200  0.36521578     0.36300
C67         C  0.97515923  0.62063102  0.33123487    -0.25900
C68         C  0.98926987  0.59374354  0.29651534     0.02700
C69         C  0.03290904  0.57718413  0.29678979     0.27500
C70         C  0.06287986  0.59358731  0.32698282    -0.25100
N71         N  0.98615390  0.65636511  0.40084370    -0.82500
H72         H  0.94199202  0.63443487  0.33189530     0.13300
C73         C  0.96064967  0.58698574  0.25798605     0.02700
N74         N  0.04705139  0.54394523  0.26588733    -0.81000
H75         H  0.09687972  0.58507249  0.32078599     0.18100
C76         C  0.98026139  0.58928982  0.21746526    -0.25900
C77         C  0.95562517  0.58457201  0.18016742     0.36200
C78         C  0.90861595  0.58229356  0.18186822    -0.19900
C79         C  0.88899221  0.58055537  0.22311682    -0.25100
C80         C  0.91443257  0.58042398  0.26053237     0.27500
H81         H  0.01538238  0.59588128  0.21420562     0.13300
N82         N  0.97888319  0.58442580  0.14036919    -0.82400
H83         H  0.85355620  0.58100760  0.22747039     0.18100
N84         N  0.89320315  0.57419093  0.30105713    -0.81000
H85         H  0.00108409  0.55765102  0.13976278     0.33800
H86         H  0.99736591  0.61377268  0.13878853     0.38300
H87         H  0.85903165  0.56979374  0.29753329     0.33700
H88         H  0.90552116  0.54463461  0.31337352     0.30400
H89         H  0.08012852  0.53488296  0.27050322     0.33700
H90         H  0.02811563  0.51539426  0.27088186     0.30400
H91         H  0.96003262  0.63823957  0.41393170     0.38300
H92         H  0.97324916  0.68626289  0.38981364     0.33800
C93         C  0.91766413  0.40416834  0.92545362    -0.20000
C94         C  0.95257018  0.41294837  0.95482547     0.36300
C95         C  0.94495202  0.43902004  0.99195311    -0.25900
C96         C  0.90255738  0.45525312  0.00255381     0.02700
C97         C  0.86737879  0.44551232  0.97466972     0.27500
C98         C  0.87616190  0.42428216  0.93541514    -0.25100
N99         N  0.99620585  0.39568337  0.94713235    -0.82500
H100        H  0.97276217  0.44705326  0.01228043     0.13300
C101        C  0.89612534  0.48690096  0.03956702     0.02700
N102        N  0.82253827  0.45753091  0.98614694    -0.81000
H103        H  0.84948298  0.42466640  0.91306877     0.18100
C104        C  0.87112349  0.52550723  0.03348377    -0.25900
C105        C  0.86414500  0.55692308  0.06610955     0.36200
C106        C  0.88653266  0.55318117  0.10550900    -0.19900
C107        C  0.91056008  0.51347078  0.11217077    -0.25100
C108        C  0.91488408  0.48013011  0.07997679     0.27500
H109        H  0.85702438  0.53203747  0.00267957     0.13300
N110        N  0.83585497  0.59411092  0.05810659    -0.82400
H111        H  0.92508534  0.50746000  0.14280406     0.18100
N112        N  0.93756259  0.43920618  0.08846749    -0.81000
H113        H  0.84774365  0.61049366  0.03136560     0.33800
H114        H  0.80426508  0.58189815  0.05099152     0.38300
H115        H  0.94933006  0.43935521  0.11964685     0.33700
H116        H  0.91432548  0.41350708  0.08614467     0.30400
H117        H  0.80036515  0.44771857  0.96234927     0.33700
H118        H  0.81394965  0.43965452  0.01313395     0.30400
H119        H  0.01819486  0.42248729  0.94583021     0.38300
H120        H  0.00503979  0.37620737  0.97288201     0.33800
C121        C  0.10510223  0.44770765  0.68930986    -0.20000
C122        C  0.05816434  0.44245661  0.68701618     0.36300
C123        C  0.03212923  0.44331261  0.72420022    -0.25900
C124        C  0.05122461  0.44987170  0.76420396     0.02700
C125        C  0.09660332  0.46099324  0.76664637     0.27500
C126        C  0.12252637  0.46088927  0.72935355    -0.25100
N127        N  0.03695080  0.43340897  0.64715956    -0.82500
H128        H  0.99708601  0.43565745  0.72197055     0.13300
C129        C  0.02492542  0.43693052  0.80203699     0.02700
N130        N  0.11775517  0.47148133  0.80643955    -0.81000
H131        H  0.15681147  0.47043578  0.73267892     0.18100
C132        C  0.03553989  0.39696484  0.82135628    -0.25900
C133        C  0.00679139  0.37763935  0.85087061     0.36200
C134        C  0.96448107  0.39743607  0.85964745    -0.19900
C135        C  0.95853502  0.44178247  0.84621512    -0.25100
C136        C  0.98745095  0.46098051  0.81629286     0.27500
H137        H  0.06599909  0.37979104  0.81248359     0.13300
N138        N  0.02227962  0.33939980  0.87278553    -0.82400
H139        H  0.92861830  0.45959899  0.85555128     0.18100
N140        N  0.97768971  0.50354737  0.79865168    -0.81000
H141        H  0.03106499  0.31481992  0.85021767     0.33800
H142        H  0.05106648  0.34832141  0.88918572     0.38300
H143        H  0.94849941  0.51669073  0.81202076     0.33700
H144        H  0.00327719  0.52522852  0.80739993     0.30400
H145        H  0.12989338  0.50396264  0.80471452     0.33700
H146        H  0.09501068  0.47181143  0.83163316     0.30400
H147        H  0.01342602  0.45836848  0.64237453     0.38300
H148        H  0.02020802  0.40307483  0.64909389     0.33800
C149        C  0.08015419  0.61471458  0.44149254    -0.20000
C150        C  0.11309041  0.62148358  0.47387685     0.36300
C151        C  0.11200902  0.59647237  0.51060213    -0.25900
C152        C  0.07925229  0.56466681  0.51755224     0.02700
C153        C  0.04364587  0.56114816  0.48864299     0.27500
C154        C  0.04522412  0.58490360  0.45071297    -0.25100
N155        N  0.14982068  0.65150554  0.47016486    -0.82500
H156        H  0.13914717  0.60003794  0.53282781     0.13300
C157        C  0.08693650  0.53251766  0.55210275     0.02700
N158        N  0.00568828  0.53345562  0.49638460    -0.81000
H159        H  0.01908728  0.57850653  0.42824092     0.18100
C160        C  0.09850442  0.54817842  0.59283652    -0.25900
C161        C  0.11383827  0.51911641  0.62390591     0.36200
C162        C  0.11707701  0.47253362  0.61499438    -0.19900
C163        C  0.10094493  0.45724814  0.57506242    -0.25100
C164        C  0.08870924  0.48653304  0.54326301     0.27500
H165        H  0.09730650  0.58357933  0.60011359     0.13300
N166        N  0.12718572  0.53736172  0.66425955    -0.82400
H167        H  0.09784897  0.42239896  0.56711631     0.18100
N168        N  0.07998832  0.46931558  0.50130679    -0.81000
H169        H  0.15211957  0.56079668  0.65905412     0.33800
H170        H  0.09996768  0.55396157  0.67801860     0.38300
H171        H  0.10832522  0.45241397  0.49031690     0.33700
H172        H  0.05417125  0.44626475  0.50332276     0.30400
H173        H  0.00660799  0.52038414  0.52683479     0.33700
H174        H  0.97761964  0.55393424  0.49623062     0.30400
H175        H  0.13972800  0.68241684  0.45939771     0.38300
H176        H  0.17441753  0.63748968  0.45059949     0.33800
C177        C  0.34345538  0.56256198  0.29369265    -0.20000
C178        C  0.31117962  0.58247960  0.26790171     0.36300
C179        C  0.27018862  0.59519073  0.28605846    -0.25900
C180        C  0.26099251  0.58796588  0.32911041     0.02700
C181        C  0.29278170  0.56715192  0.35455518     0.27500
C182        C  0.33369512  0.55464703  0.33655657    -0.25100
N183        N  0.32093168  0.59192956  0.22421222    -0.82500
H184        H  0.24534443  0.61097135  0.26672411     0.13300
C185        C  0.21749259  0.60134297  0.34715276     0.02700
N186        N  0.28364221  0.55969637  0.39876796    -0.81000
H187        H  0.35865303  0.53971164  0.35637922     0.18100
C188        C  0.18909746  0.56838598  0.36142277    -0.25900
C189        C  0.14810437  0.57876580  0.37980541     0.36200
C190        C  0.13246537  0.62429102  0.38158790    -0.19900
C191        C  0.16345092  0.65726871  0.36936675    -0.25100
C192        C  0.20533594  0.64623637  0.35216287     0.27500
H193        H  0.19934553  0.53380610  0.35889853     0.13300
N194        N  0.12363825  0.54157613  0.39563891    -0.82400
H195        H  0.15668734  0.69208880  0.37458324     0.18100
N196        N  0.23600021  0.68052009  0.34040538    -0.81000
H197        H  0.12379676  0.54223600  0.42878403     0.33800
H198        H  0.09135337  0.54074211  0.38417603     0.38300
H199        H  0.22209501  0.71205447  0.34579977     0.33700
H200        H  0.26340962  0.67839601  0.36042436     0.30400
H201        H  0.31045965  0.54388557  0.41298685     0.33700
H202        H  0.28023644  0.59081410  0.41398179     0.30400
H203        H  0.32344791  0.56148690  0.20765091     0.38300
H204        H  0.29458140  0.60904523  0.21057545     0.33800
C205        C  0.60347905  0.55647683  0.21368284    -0.20000
C206        C  0.62021723  0.53377735  0.17704049     0.36300
C207        C  0.66458617  0.54036652  0.16453984    -0.25900
C208        C  0.69251072  0.56867362  0.18802738     0.02700
C209        C  0.67633426  0.59064917  0.22488758     0.27500
C210        C  0.63203074  0.58448472  0.23725444    -0.25100
N211        N  0.59248301  0.50393806  0.15284822    -0.82500
H212        H  0.67763054  0.52323769  0.13644582     0.13300
C213        C  0.73915181  0.57416285  0.17440882     0.02700
N214        N  0.70507258  0.61905086  0.24960744    -0.81000
H215        H  0.61971700  0.60210201  0.26535973     0.18100
C216        C  0.75286495  0.61448768  0.15744738    -0.25900
C217        C  0.79704828  0.62129176  0.14465841     0.36200
C218        C  0.82957838  0.58747024  0.15120056    -0.19900
C219        C  0.81394242  0.54604064  0.16611007    -0.25100
C220        C  0.76972194  0.53936472  0.17827968     0.27500
H221        H  0.72867522  0.64070646  0.15312273     0.13300
N222        N  0.80697039  0.66141497  0.12286767    -0.82400
H223        H  0.83721612  0.51895316  0.16991921     0.18100
N224        N  0.75581733  0.49751965  0.19518672    -0.81000
H225        H  0.78685247  0.66287526  0.09600798     0.33800
H226        H  0.79857521  0.68839218  0.14293159     0.38300
H227        H  0.78235182  0.47509609  0.19569360     0.33700
H228        H  0.74617391  0.50328063  0.22683608     0.30400
H229        H  0.68797686  0.63302079  0.27570502     0.33700
H230        H  0.73014763  0.59911993  0.26191615     0.30400
H231        H  0.58487398  0.47707932  0.17216319     0.38300
H232        H  0.60973456  0.49075891  0.12648082     0.33800
C233        C  0.08395393  0.17587298  0.53946365    -0.20000
C234        C  0.10446088  0.17922258  0.57987381     0.36300
C235        C  0.11617790  0.22091553  0.59698053    -0.25900
C236        C  0.10808380  0.26000539  0.57502982     0.02700
C237        C  0.08865648  0.25722079  0.53434923     0.27500
C238        C  0.07690845  0.21519520  0.51691198    -0.25100
N239        N  0.11407877  0.14041986  0.60384256    -0.82500
H240        H  0.13163596  0.22277867  0.62796719     0.13300
C241        C  0.11829142  0.30354749  0.59615566     0.02700
N242        N  0.08048616  0.29707695  0.51118097    -0.81000
H243        H  0.06188280  0.21326260  0.48576788     0.18100
C244        C  0.14896448  0.33244308  0.57781176    -0.25900
C245        C  0.15712040  0.37484040  0.59587162     0.36200
C246        C  0.13279767  0.39004549  0.63247013    -0.19900
C247        C  0.10672100  0.35795303  0.65348461    -0.25100
C248        C  0.09815428  0.31585095  0.63520000     0.27500
H249        H  0.16627525  0.32228473  0.54886543     0.13300
N250        N  0.18859904  0.40321123  0.57558665    -0.82400
H251        H  0.09204701  0.36516501  0.68421477     0.18100
N252        N  0.06832284  0.28575020  0.65587974    -0.81000
H253        H  0.21941617  0.38720754  0.57544518     0.33800
H254        H  0.17906246  0.40712018  0.54399938     0.38300
H255        H  0.05642108  0.29959255  0.68455234     0.33700
H256        H  0.04079605  0.28136432  0.63623430     0.30400
H257        H  0.06626434  0.28937687  0.48172966     0.33700
H258        H  0.05710543  0.31601714  0.52839905     0.30400
H259        H  0.14823419  0.13946726  0.60926490     0.38300
H260        H  0.09788593  0.14354362  0.63327682     0.33800
C261        C  0.05608959  0.92392919  0.43408194    -0.20000
C262        C  0.09678668  0.90081980  0.43534280     0.36300
C263        C  0.09890464  0.85568775  0.42309273    -0.25900
C264        C  0.06087532  0.83281011  0.40980123     0.02700
C265        C  0.02024887  0.85602829  0.40713077     0.27500
C266        C  0.01829037  0.90168823  0.41892992    -0.25100
N267        N  0.13604940  0.92315523  0.44967052    -0.82500
H268        H  0.13009463  0.83796032  0.42549832     0.13300
C269        C  0.06327446  0.78356380  0.40444526     0.02700
N270        N  0.98093842  0.83263125  0.39418951    -0.81000
H271        H  0.98694343  0.91932090  0.41823584     0.18100
C272        C  0.05520774  0.75826919  0.44025145    -0.25900
C273        C  0.05966417  0.71182011  0.43930458     0.36200
C274        C  0.07561236  0.68887783  0.40160010    -0.19900
C275        C  0.07924437  0.71486605  0.36460491    -0.25100
C276        C  0.07433150  0.76151615  0.36567555     0.27500
H277        H  0.04476398  0.77489682  0.46961433     0.13300
N278        N  0.04540657  0.68894393  0.47645111    -0.82400
H279        H  0.08770065  0.69867916  0.33449233     0.18100
N280        N  0.08154131  0.78517781  0.32701288    -0.81000
H281        H  0.01201962  0.69655721  0.48223769     0.33800
H282        H  0.06375467  0.70081622  0.50238325     0.38300
H283        H  0.05728451  0.77479578  0.30542571     0.33700
H284        H  0.07721717  0.81941113  0.33165086     0.30400
H285        H  0.95368620  0.85419970  0.39440481     0.33700
H286        H  0.98569465  0.82183243  0.36266068     0.30400
H287        H  0.14833132  0.90619684  0.47576608     0.38300
H288        H  0.15976648  0.92104277  0.42527825     0.33800
C289        C  0.92802790  0.05857211  0.52657863    -0.20000
C290        C  0.89822697  0.08890964  0.50774634     0.36300
C291        C  0.85483873  0.09357881  0.52405830    -0.25900
C292        C  0.84045079  0.06937500  0.55908494     0.02700
C293        C  0.86981458  0.03932689  0.57807248     0.27500
C294        C  0.91322064  0.03419826  0.56166352    -0.25100
N295        N  0.91210080  0.11560064  0.47267287    -0.82500
H296        H  0.83200599  0.11649208  0.50949950     0.13300
C297        C  0.79402592  0.07520766  0.57462712     0.02700
N298        N  0.85545186  0.01437644  0.61410858    -0.81000
H299        H  0.93561830  0.01108759  0.57648310     0.18100
C300        C  0.76404580  0.04038622  0.56898982    -0.25900
C301        C  0.71897535  0.04548321  0.57889272     0.36200
C302        C  0.70241115  0.08663489  0.59727498    -0.19900
C303        C  0.73375902  0.12141207  0.60281053    -0.25100
C304        C  0.77889874  0.11603408  0.59192736     0.27500
H305        H  0.77553008  0.00915443  0.55488299     0.13300
N306        N  0.69138127  0.00806607  0.56847824    -0.82400
H307        H  0.72334471  0.15414508  0.61330639     0.18100
N308        N  0.80948675  0.15226156  0.59772821    -0.81000
H309        H  0.67293472  0.99809466  0.59467119     0.33800
H310        H  0.67094291  0.01564425  0.54309654     0.38300
H311        H  0.79332583  0.18032428  0.61060040     0.33700
H312        H  0.83281888  0.14260067  0.62016131     0.30400
H313        H  0.88092027  0.99365924  0.62439762     0.33700
H314        H  0.84883771  0.03708284  0.63902640     0.30400
H315        H  0.88578986  0.13490119  0.46182321     0.38300
H316        H  0.93594934  0.13797703  0.48407939     0.33800
C317        C  0.57904590  0.92623512  0.81587228    -0.20000
C318        C  0.58504714  0.97319989  0.81959371     0.36300
C319        C  0.58625971  0.99914593  0.78318238    -0.25900
C320        C  0.58240828  0.97962947  0.74269993     0.02700
C321        C  0.57148650  0.93434205  0.73851823     0.27500
C322        C  0.56752682  0.90872675  0.77522262    -0.25100
N323        N  0.59360768  0.99430763  0.85995921    -0.82500
H324        H  0.59416760  0.03423399  0.78636688     0.13300
C325        C  0.59840382  0.00513691  0.70607896     0.02700
N326        N  0.56742639  0.91384869  0.69699937    -0.81000
H327        H  0.55700499  0.87467297  0.77109619     0.18100
C328        C  0.64415990  0.00886824  0.70048285    -0.25900
C329        C  0.66248067  0.03712081  0.67025763     0.36200
C330        C  0.63441745  0.05972558  0.64125482    -0.19900
C331        C  0.58805721  0.05682681  0.64902166    -0.25100
C332        C  0.56990556  0.03009122  0.68088698     0.27500
H333        H  0.66612942  0.99155486  0.72171400     0.13300
N334        N  0.70935797  0.04445806  0.67173239    -0.82400
H335        H  0.56548004  0.07619890  0.63053520     0.18100
N336        N  0.52293877  0.03008905  0.68915125    -0.81000
H337        H  0.72540210  0.01378617  0.66743949     0.33800
H338        H  0.71731461  0.05711237  0.70194509     0.38300
H339        H  0.50668183  0.05169678  0.66881589     0.33700
H340        H  0.51094171  0.99826335  0.68201272     0.30400
H341        H  0.56168532  0.87968839  0.69936922     0.33700
H342        H  0.53942837  0.92718000  0.68266171     0.30400
H343        H  0.62447154  0.01001074  0.85839713     0.38300
H344        H  0.56940094  0.01876955  0.86541694     0.33800
C345        C  0.45645280  0.19748437  0.35369887    -0.20000
C346        C  0.42918755  0.23189450  0.37194357     0.36300
C347        C  0.43795356  0.27661983  0.36294467    -0.25900
C348        C  0.47481525  0.28868928  0.33863478     0.02700
C349        C  0.50538403  0.25561285  0.32522456     0.27500
C350        C  0.49624912  0.21099869  0.33356488    -0.25100
N351        N  0.39429284  0.22270120  0.40158231    -0.82500
H352        H  0.41552357  0.30225911  0.37496938     0.13300
C353        C  0.47805028  0.33511404  0.32424496     0.02700
N354        N  0.54572117  0.26584145  0.30279553    -0.81000
H355        H  0.51976600  0.18613806  0.32222194     0.18100
C356        C  0.49568348  0.36838932  0.35102220    -0.25900
C357        C  0.49803987  0.41296869  0.33801466     0.36200
C358        C  0.48169747  0.42435302  0.29750700    -0.19900
C359        C  0.46423871  0.39040574  0.27098405    -0.25100
C360        C  0.46230939  0.34610993  0.28388500     0.27500
H361        H  0.50771438  0.35944754  0.38206566     0.13300
N362        N  0.51674072  0.44638578  0.36586474    -0.82400
H363        H  0.45132060  0.39838733  0.24003907     0.18100
N364        N  0.44318965  0.31231600  0.25664173    -0.81000
H365        H  0.52585822  0.43261280  0.39476513     0.33800
H366        H  0.54603064  0.45748119  0.35162850     0.38300
H367        H  0.43177549  0.32608196  0.22851072     0.33700
H368        H  0.46836820  0.28993220  0.24783713     0.30400
H369        H  0.54345721  0.25183316  0.27217423     0.33700
H370        H  0.54987753  0.30005180  0.29943673     0.30400
H371        H  0.36493449  0.23663455  0.39038650     0.38300
H372        H  0.40172116  0.23875675  0.43046957     0.33800
C373        C  0.48760558  0.13504111  0.39102729    -0.20000
C374        C  0.52691773  0.11044378  0.38080902     0.36300
C375        C  0.55551839  0.09779765  0.41341497    -0.25900
C376        C  0.54738036  0.11112935  0.45554299     0.02700
C377        C  0.51200604  0.14018727  0.46520794     0.27500
C378        C  0.48348385  0.15270625  0.43285889    -0.25100
N379        N  0.53989885  0.10053323  0.33774388    -0.82500
H380        H  0.58486723  0.07828793  0.40564899     0.13300
C381        C  0.57891908  0.09905389  0.48880298     0.02700
N382        N  0.50524145  0.15710827  0.50784292    -0.81000
H383        H  0.45586937  0.17435092  0.44097566     0.18100
C384        C  0.61508146  0.12684790  0.49575461    -0.25900
C385        C  0.64054660  0.12328541  0.53236326     0.36200
C386        C  0.63021313  0.09045982  0.56306174    -0.19900
C387        C  0.59763174  0.05842418  0.55207369    -0.25100
C388        C  0.57090686  0.06339210  0.51599637     0.27500
H389        H  0.62154323  0.15381934  0.47423011     0.13300
N390        N  0.67411522  0.15603803  0.54010556    -0.82400
H391        H  0.59168350  0.03025716  0.57200786     0.18100
N392        N  0.53520821  0.03296213  0.50728066    -0.81000
H393        H  0.65931440  0.18754137  0.54026379     0.33800
H394        H  0.69702268  0.15427459  0.51499605     0.38300
H395        H  0.53386194  0.00838745  0.53026701     0.33700
H396        H  0.50542110  0.05068509  0.50991123     0.30400
H397        H  0.47857485  0.17939882  0.50929204     0.33700
H398        H  0.49643947  0.13033829  0.52677073     0.30400
H399        H  0.57052512  0.11565497  0.33211683     0.38300
H400        H  0.54434739  0.06610926  0.33440626     0.33800
C401        C  0.40342111  0.13315416  0.37843376    -0.20000
C402        C  0.36321500  0.14437864  0.35780235     0.36300
C403        C  0.32226294  0.12987642  0.37384587    -0.25900
C404        C  0.31978922  0.10212950  0.40900330     0.02700
C405        C  0.35924628  0.08764836  0.42758143     0.27500
C406        C  0.40008907  0.10288601  0.41238239    -0.25100
N407        N  0.36364692  0.17023368  0.32014958    -0.82500
H408        H  0.29206949  0.14001257  0.35825600     0.13300
C409        C  0.27578728  0.08634617  0.42393621     0.02700
N410        N  0.35823099  0.05555850  0.46059922    -0.81000
H411        H  0.42917972  0.08834559  0.42631227     0.18100
C412        C  0.24671346  0.06670377  0.39441263    -0.25900
C413        C  0.20382388  0.05394336  0.40650554     0.36200
C414        C  0.18978759  0.05997797  0.44907812    -0.19900
C415        C  0.21935127  0.07805767  0.47899003    -0.25100
C416        C  0.26181448  0.09209563  0.46663431     0.27500
H417        H  0.25712651  0.06187218  0.36157387     0.13300
N418        N  0.17452933  0.03502469  0.37540710    -0.82400
H419        H  0.20854741  0.08383146  0.51159906     0.18100
N420        N  0.28968594  0.11424766  0.49704600    -0.81000
H421        H  0.18964323  0.00650990  0.36225869     0.33800
H422        H  0.17071627  0.05796974  0.35118392     0.38300
H423        H  0.27279590  0.14235964  0.50887404     0.33700
H424        H  0.29461367  0.09281511  0.52232829     0.30400
H425        H  0.37610487  0.02752648  0.45006442     0.33700
H426        H  0.37454287  0.06918793  0.48703760     0.30400
H427        H  0.34381656  0.19840350  0.32542745     0.38300
H428        H  0.34918097  0.15120754  0.29574181     0.33800
C429        C  0.40584250  0.94501584  0.06431083    -0.20000
C430        C  0.39807941  0.91429113  0.03011567     0.36300
C431        C  0.42403740  0.91570669  0.99310800    -0.25900
C432        C  0.45599423  0.94885618  0.98762567     0.02700
C433        C  0.45796522  0.98436985  0.01787889     0.27500
C434        C  0.43362831  0.98167050  0.05587959    -0.25100
N435        N  0.36604500  0.87943712  0.03402995    -0.82500
H436        H  0.42066549  0.88916027  0.96947853     0.13300
C437        C  0.48929120  0.94245880  0.95279172     0.02700
N438        N  0.48320001  0.02409517  0.01073083    -0.81000
H439        H  0.43662913  0.00894782  0.07862899     0.18100
C440        C  0.47539169  0.93103385  0.91154633    -0.25900
C441        C  0.50588836  0.91684921  0.88001475     0.36200
C442        C  0.55208331  0.91479278  0.88906474    -0.19900
C443        C  0.56551593  0.93174707  0.92929639    -0.25100
C444        C  0.53493189  0.94240991  0.96154188     0.27500
H445        H  0.44033725  0.93118380  0.90421772     0.13300
N446        N  0.48950520  0.90284615  0.83926105    -0.82400
H447        H  0.59983231  0.93668494  0.93713614     0.18100
N448        N  0.55057829  0.95106040  0.00381692    -0.81000
H449        H  0.47254430  0.92961547  0.82622055     0.33800
H450        H  0.46682634  0.87705915  0.84367098     0.38300
H451        H  0.56807280  0.92303945  0.01356179     0.33700
H452        H  0.57275304  0.97773174  0.00286213     0.30400
H453        H  0.50852511  0.02578150  0.03320833     0.33700
H454        H  0.49776415  0.02377855  0.98051076     0.30400
H455        H  0.38224143  0.84884133  0.02980603     0.38300
H456        H  0.34310926  0.88252346  0.00951412     0.33800
C457        C  0.39946603  0.97247655  0.14335990    -0.20000
C458        C  0.44503944  0.97464257  0.15525636     0.36300
C459        C  0.45863727  0.00324868  0.18855321    -0.25900
C460        C  0.42790681  0.02967079  0.21090338     0.02700
C461        C  0.38292291  0.02713565  0.20065574     0.27500
C462        C  0.36903876  0.99851802  0.16788226    -0.25100
N463        N  0.47777646  0.94749324  0.13396639    -0.82500
H464        H  0.49333753  0.00455881  0.19720663     0.13300
C465        C  0.44200992  0.05863010  0.24661904     0.02700
N466        N  0.35090904  0.05290617  0.22449722    -0.81000
H467        H  0.33369885  0.99597665  0.16338714     0.18100
C468        C  0.44367010  0.10447779  0.24085415    -0.25900
C469        C  0.44779353  0.13438754  0.27543647     0.36200
C470        C  0.45185565  0.11794433  0.31757802    -0.19900
C471        C  0.45136517  0.07105488  0.32211533    -0.25100
C472        C  0.44669584  0.04153387  0.28739934     0.27500
H473        H  0.43893308  0.11737448  0.20928194     0.13300
N474        N  0.44434104  0.18085325  0.26691089    -0.82400
H475        H  0.45363385  0.05727881  0.35352858     0.18100
N476        N  0.44522893  0.99427098  0.29356131    -0.81000
H477        H  0.47006297  0.18913824  0.24605648     0.33800
H478        H  0.41439566  0.18657952  0.25139741     0.38300
H479        H  0.44974225  0.98703442  0.32560206     0.35700
H480        H  0.41341777  0.98324911  0.28564559     0.30400
H481        H  0.33384400  0.07295707  0.20332834     0.33700
H482        H  0.32815100  0.03102490  0.23800224     0.30400
H483        H  0.49278583  0.92747267  0.15653252     0.38300
H484        H  0.50209553  0.96834796  0.12145982     0.33800
C485        C  0.39485985  0.89208605  0.12713775    -0.20000
C486        C  0.37585411  0.87757691  0.16608789     0.36300
C487        C  0.38809569  0.83645150  0.18295824    -0.25900
C488        C  0.41998592  0.80941986  0.16275049     0.02700
C489        C  0.44129146  0.82419994  0.12591070     0.27500
C490        C  0.42909210  0.86510505  0.10892260    -0.25100
N491        N  0.34402986  0.90452954  0.18886869    -0.82500
H492        H  0.37229229  0.82539641  0.21192362     0.13300
C493        C  0.43031902  0.76501190  0.17951327     0.02700
N494        N  0.47584467  0.79769170  0.10617230    -0.81000
H495        H  0.44837080  0.87615903  0.08217960     0.18100
C496        C  0.41884034  0.72737965  0.15515606    -0.25900
C497        C  0.42893012  0.68454437  0.16874616     0.36200
C498        C  0.45138883  0.67884239  0.20768282    -0.19900
C499        C  0.46277313  0.71686878  0.23212114    -0.25100
C500        C  0.45260117  0.75993686  0.21828935     0.27500
H501        H  0.40171345  0.73132163  0.12528862     0.13300
N502        N  0.41555144  0.64709382  0.14297495    -0.82400
H503        H  0.47984620  0.71308717  0.26199391     0.18100
N504        N  0.46511178  0.79851752  0.24316129    -0.81000
H505        H  0.38112291  0.64846456  0.13945514     0.33800
H506        H  0.43013057  0.64999412  0.11289414     0.38300
H507        H  0.48117947  0.78910070  0.27089938     0.33700
H508        H  0.48823644  0.81630163  0.22537327     0.30400
H509        H  0.48816265  0.81293217  0.07896322     0.33700
H510        H  0.50212700  0.79618041  0.12758363     0.30400
H511        H  0.35661514  0.91162869  0.21913948     0.38300
H512        H  0.31501258  0.88596944  0.19256228     0.33800
C513        C  0.88154870  0.37302504  0.85634506    -0.20000
C514        C  0.87668442  0.38918417  0.81426980     0.36300
C515        C  0.83437584  0.40006612  0.79938297    -0.25900
C516        C  0.79619056  0.39129662  0.82324166     0.02700
C517        C  0.80029455  0.36460919  0.85954331     0.27500
C518        C  0.84280160  0.35467953  0.87481099    -0.25100
N519        N  0.91328485  0.39198520  0.78516511    -0.82500
H520        H  0.83151932  0.41638013  0.76913063     0.13300
C521        C  0.75351947  0.41172495  0.80993878     0.02700
N522        N  0.76247163  0.34749031  0.88191307    -0.81000
H523        H  0.84520175  0.33706437  0.90439737     0.18100
C524        C  0.73800901  0.40399868  0.76850122    -0.25900
C525        C  0.69894277  0.42439323  0.75419349     0.36200
C526        C  0.67517184  0.45390620  0.78169197    -0.19900
C527        C  0.69095706  0.46186772  0.82305269    -0.25100
C528        C  0.73006143  0.44154450  0.83713625     0.27500
H529        H  0.75609546  0.38126762  0.74748503     0.13300
N530        N  0.68234006  0.41364750  0.71252017    -0.82400
H531        H  0.67268171  0.48383314  0.84466708     0.18100
N532        N  0.74623306  0.45172591  0.87891693    -0.81000
H533        H  0.70386162  0.39175816  0.69626991     0.33800
H534        H  0.65262125  0.39642002  0.71655453     0.38300
H535        H  0.75154327  0.48604996  0.88134144     0.33700
H536        H  0.72153141  0.44352040  0.90088423     0.30400
H537        H  0.76139985  0.36287117  0.91204222     0.33700
H538        H  0.73288055  0.35501887  0.86663556     0.30400
H539        H  0.90724720  0.37012465  0.75956197     0.38300
H540        H  0.91388855  0.42411145  0.77304316     0.33800
C541        C  0.63834482  0.13984171  0.62916638    -0.20000
C542        C  0.59907716  0.16416276  0.61831394     0.36300
C543        C  0.58923164  0.20478768  0.63823880    -0.25900
C544        C  0.61514679  0.22219348  0.67073813     0.02700
C545        C  0.65118503  0.19697243  0.68563753     0.27500
C546        C  0.66114346  0.15557132  0.66577972    -0.25100
N547        N  0.56715952  0.14785452  0.58845442    -0.82500
H548        H  0.56023359  0.22310745  0.62815193     0.13300
C549        C  0.60298155  0.26736369  0.68643347     0.02700
N550        N  0.67851838  0.21223759  0.72020114    -0.81000
H551        H  0.68808278  0.13613193  0.67836302     0.18100
C552        C  0.57933206  0.27296392  0.72475075    -0.25900
C553        C  0.56061084  0.31451539  0.73659915     0.36200
C554        C  0.56590176  0.35109803  0.70941489    -0.19900
C555        C  0.58883159  0.34459424  0.67056721    -0.25100
C556        C  0.60757425  0.30344358  0.65903451     0.27500
H557        H  0.57443470  0.24449698  0.74479593     0.13300
N558        N  0.53609056  0.31937890  0.77577651    -0.82400
H559        H  0.59332975  0.37206926  0.64925688     0.18100
N560        N  0.63062106  0.29769743  0.61905335    -0.81000
H561        H  0.53593112  0.28948836  0.79217174     0.33800
H562        H  0.50311855  0.32603903  0.76800841     0.38300
H563        H  0.63061787  0.32729175  0.60218315     0.33700
H564        H  0.66374057  0.29043351  0.62569008     0.30400
H565        H  0.71060923  0.21650035  0.70815190     0.33700
H566        H  0.66819204  0.24332976  0.73196923     0.30400
H567        H  0.56416525  0.17155058  0.56483036     0.38300
H568        H  0.53644634  0.14536049  0.60390071     0.33800
C569        C  0.54987426  0.61552482  0.78196315    -0.20000
C570        C  0.54314476  0.64991491  0.75260926     0.36300
C571        C  0.54958939  0.69461800  0.76556631    -0.25900
C572        C  0.56250783  0.70582446  0.80720504     0.02700
C573        C  0.56870729  0.67158741  0.83662540     0.27500
C574        C  0.56184532  0.62694033  0.82385185    -0.25100
N575        N  0.52940735  0.63941438  0.70989119    -0.82500
H576        H  0.54426170  0.72095581  0.74316993     0.13300
C577        C  0.56901782  0.75351588  0.81981530     0.02700
N578        N  0.58294740  0.68227491  0.87913941    -0.81000
H579        H  0.56745362  0.60077785  0.84635855     0.18100
C580        C  0.54438688  0.77179214  0.85377028    -0.25900
C581        C  0.54992252  0.81621040  0.86757086     0.36200
C582        C  0.57875010  0.84519296  0.84480165    -0.19900
C583        C  0.60581684  0.82497636  0.81272540    -0.25100
C584        C  0.60081303  0.78017288  0.79963469     0.27500
H585        H  0.52119161  0.75091135  0.87064301     0.13300
N586        N  0.52831609  0.82975817  0.90642244    -0.82400
H587        H  0.63051677  0.84489257  0.79683918     0.18100
N588        N  0.62822033  0.76155004  0.76611376    -0.81000
H589        H  0.49421438  0.82465322  0.90303555     0.33800
H590        H  0.53945673  0.80934162  0.93063478     0.38300
H591        H  0.64984770  0.78557102  0.75434289     0.33700
H592        H  0.64797812  0.73685483  0.77928741     0.30400
H593        H  0.58605398  0.65341094  0.89684083     0.33700
H594        H  0.61463757  0.69615995  0.87702969     0.30400
H595        H  0.49782102  0.62524094  0.71164881     0.38300
H596        H  0.52617369  0.66838650  0.69235659     0.33800
C597        C  0.41612838  0.48380779  0.70785380    -0.20000
C598        C  0.40341781  0.47505574  0.66533610     0.36300
C599        C  0.35829624  0.46916051  0.65539264    -0.25900
C600        C  0.32524754  0.47156654  0.68712590     0.02700
C601        C  0.33771416  0.48102645  0.72950490     0.27500
C602        C  0.38281403  0.48687710  0.73938412    -0.25100
N603        N  0.43619766  0.47026972  0.63235819    -0.82500
H604        H  0.34912481  0.46154572  0.62280038     0.13300
C605        C  0.27782244  0.46339582  0.67595966     0.02700
N606        N  0.30445045  0.48453928  0.76241600    -0.81000
H607        H  0.39200011  0.49360202  0.77212014     0.18100
C608        C  0.25451754  0.42911723  0.69564349    -0.25900
C609        C  0.20945592  0.42123436  0.68722689     0.36200
C610        C  0.18582667  0.44841185  0.65851328    -0.19900
C611        C  0.21077494  0.48120031  0.63705158    -0.25100
C612        C  0.25573601  0.48950369  0.64612509     0.27500
H613        H  0.27149976  0.40816063  0.71794207     0.13300
N614        N  0.18769316  0.38549873  0.70835880    -0.82400
H615        H  0.19601274  0.50058140  0.61245096     0.18100
N616        N  0.27900374  0.52474120  0.62530998    -0.81000
H617        H  0.20427317  0.35590978  0.70018092     0.33800
H618        H  0.19068908  0.39080732  0.74117220     0.38300
H619        H  0.25825423  0.54089291  0.60407212     0.33700
H620        H  0.28766663  0.54842455  0.64861936     0.30400
H621        H  0.31900447  0.49129212  0.79191116     0.33700
H622        H  0.28435837  0.51187370  0.75577469     0.30400
H623        H  0.42925692  0.49347458  0.60902759     0.38300
H624        H  0.43310604  0.43843942  0.61861578     0.33800
C625        C  0.95951440  0.85136383  0.05608625    -0.20000
C626        C  0.91611575  0.84220402  0.07052886     0.36300
C627        C  0.90693293  0.80099401  0.08855961    -0.25900
C628        C  0.94025254  0.76889171  0.09252933     0.02700
C629        C  0.98403892  0.77857487  0.07926125     0.27500
C630        C  0.99316773  0.81972635  0.06061269    -0.25100
N631        N  0.88127217  0.87443468  0.06569053    -0.82500
H632        H  0.87327666  0.79320293  0.09813496     0.13300
C633        C  0.92752335  0.72378137  0.10616340     0.02700
N634        N  0.01882888  0.74646825  0.08465890    -0.81000
H635        H  0.02653794  0.82736967  0.05005975     0.18100
C636        C  0.93576552  0.68796367  0.07838320    -0.25900
C637        C  0.92258615  0.64475063  0.08794152     0.36200
C638        C  0.89684871  0.63675502  0.12563621    -0.19900
C639        C  0.89135884  0.67326090  0.15454689    -0.25100
C640        C  0.90578129  0.71640874  0.14505987     0.27500
H641        H  0.95344740  0.69344642  0.04881169     0.13300
N642        N  0.93885977  0.60972696  0.06033288    -0.82400
H643        H  0.87463293  0.66804273  0.18462938     0.18100
N644        N  0.89840377  0.75276130  0.17474138    -0.81000
H645        H  0.97350773  0.61104573  0.05972048     0.33800
H646        H  0.92801260  0.61571742  0.02948317     0.38300
H647        H  0.88168270  0.74184510  0.20181480     0.33700
H648        H  0.92943317  0.76410353  0.18480646     0.30400
H649        H  0.04902486  0.75873752  0.07335978     0.33700
H650        H  0.02258302  0.74199387  0.11730409     0.30400
H651        H  0.87631029  0.87827355  0.03311497     0.38300
H652        H  0.85138652  0.86266332  0.07817909     0.33800
C653        C  0.63538283  0.89865058  0.87104936    -0.20000
C654        C  0.67119062  0.91932377  0.84894641     0.36300
C655        C  0.71171864  0.92652043  0.86938448    -0.25900
C656        C  0.71973728  0.91031236  0.90988121     0.02700
C657        C  0.68761093  0.88342846  0.92917540     0.27500
C658        C  0.64652563  0.87667075  0.90897617    -0.25100
N659        N  0.66859716  0.93031873  0.80496189    -0.82500
H660        H  0.73767082  0.94439698  0.85294678     0.13300
C661        C  0.76329091  0.91982455  0.92982694     0.02700
N662        N  0.69668941  0.86342150  0.96925843    -0.81000
H663        H  0.62165047  0.85665241  0.92453831     0.18100
C664        C  0.76567989  0.94622466  0.96716694    -0.25900
C665        C  0.80695704  0.96019942  0.98369503     0.36200
C666        C  0.84657778  0.94728125  0.96229535    -0.19900
C667        C  0.84356146  0.91951698  0.92569997    -0.25100
C668        C  0.80265122  0.90559251  0.90949928     0.27500
H669        H  0.73518774  0.95708371  0.98265460     0.13300
N670        N  0.80849449  0.98766547  0.02161638    -0.82400
H671        H  0.87339669  0.90824797  0.90934851     0.18100
N672        N  0.80080364  0.87720371  0.87213465    -0.81000
H673        H  0.77656672  0.99293420  0.03395239     0.33800
H674        H  0.82044417  0.01885914  0.01299755     0.38300
H675        H  0.83269835  0.86987567  0.86069726     0.33700
H676        H  0.78673390  0.84700663  0.88106412     0.30400
H677        H  0.66947251  0.84481127  0.97937979     0.33700
H678        H  0.72288039  0.84097756  0.96443662     0.30400
H679        H  0.69258234  0.91175842  0.78815791     0.38300
H680        H  0.67655946  0.96397872  0.80203976     0.33800
C681        C  0.10545666  0.97470502  0.04023573    -0.20000
C682        C  0.13425976  0.94298321  0.02041357     0.36300
C683        C  0.17783194  0.93837183  0.03447400    -0.25900
C684        C  0.19394679  0.96428676  0.06831020     0.02700
C685        C  0.16585256  0.99622804  0.08831372     0.27500
C686        C  0.12170594  0.00097345  0.07422636    -0.25100
N687        N  0.11929379  0.91428629  0.98649750    -0.82500
H688        H  0.19937581  0.91412528  0.01872001     0.13300
C689        C  0.24077316  0.95774808  0.08120482     0.02700
N690        N  0.18219955  0.02342682  0.12288658    -0.81000
H691        H  0.10003628  0.02520951  0.08974425     0.18100
C692        C  0.27099473  0.99235189  0.07605142    -0.25900
C693        C  0.31625261  0.98637815  0.08406231     0.36200
C694        C  0.33249550  0.94497110  0.09905313    -0.19900
C695        C  0.30160878  0.90984508  0.10249559    -0.25100
C696        C  0.25620861  0.91597379  0.09432311     0.27500
H697        H  0.25953203  0.02412134  0.06466201     0.13300
N698        N  0.34566349  0.02297550  0.07732129    -0.82400
H699        H  0.31251772  0.87688523  0.11050045     0.18100
N700        N  0.22563947  0.87967411  0.09876544    -0.81000
H701        H  0.33479645  0.05002752  0.09613575     0.33800
H702        H  0.34349459  0.03188160  0.04545820     0.38300
H703        H  0.24213200  0.85098290  0.10831749     0.33700
H704        H  0.20336658  0.88837222  0.12321048     0.30400
H705        H  0.15753432  0.04531320  0.13405692     0.33700
H706        H  0.18959030  0.00239063  0.14791325     0.30400
H707        H  0.13966694  0.91923635  0.95997054     0.38300
H708        H  0.12314172  0.88132019  0.99580584     0.33800
C709        C  0.96877943  0.09685911  0.94862925    -0.20000
C710        C  0.00097779  0.11730508  0.92276473     0.36300
C711        C  0.99416498  0.16162714  0.90989379    -0.25900
C712        C  0.95581402  0.18541960  0.92248097     0.02700
C713        C  0.92271875  0.16364415  0.94591076     0.27500
C714        C  0.92967942  0.12009697  0.95917291    -0.25100
N715        N  0.04083311  0.09370814  0.91091042    -0.82500
H716        H  0.01937500  0.17813948  0.89128986     0.13300
C717        C  0.95081601  0.23345418  0.91276975     0.02700
N718        N  0.88177403  0.18576934  0.95623764    -0.81000
H719        H  0.90420898  0.10430279  0.97808841     0.18100
C720        C  0.94864783  0.24714678  0.87062950    -0.25900
C721        C  0.94065068  0.29197924  0.86095336     0.36200
C722        C  0.93498085  0.32483880  0.89403907    -0.19900
C723        C  0.93636109  0.30983351  0.93635470    -0.25100
C724        C  0.94552074  0.26539234  0.94573862     0.27500
H725        H  0.95245521  0.22275381  0.84496859     0.13300
N726        N  0.93877976  0.30402683  0.81722955    -0.82400
H727        H  0.93000833  0.33191885  0.96315343     0.18100
N728        N  0.94970530  0.25277946  0.98919662    -0.81000
H729        H  0.91333717  0.28578365  0.80274722     0.33800
H730        H  0.96866838  0.29478171  0.80243475     0.38300
H731        H  0.97526562  0.27157428  0.00282825     0.33700
H732        H  0.92023300  0.26117954  0.00519172     0.30400
H733        H  0.85592184  0.16690395  0.94323627     0.33700
H734        H  0.87788318  0.18628901  0.98930362     0.30400
H735        H  0.05852226  0.08793166  0.93871473     0.38300
H736        H  0.06104572  0.11345573  0.89187999     0.33800
loop_ 
_geom_bond_atom_site_label_1 
_geom_bond_atom_site_label_2 
_geom_bond_distance 
_geom_bond_site_symmetry_2 
_ccdc_geom_bond_type 
O1           Cu9   1.971   1_455  S
O1           C11   1.272   1_556  A
O2           Cu9   1.973       .  S
O2           C12   1.274       .  A
O3           Cu9   2.040   1_545  S
O3           C13   1.281       .  A
O4           Cu9   2.034       .  S
O4           C14   1.281   1_556  A
O5          Cu10   1.974       .  S
O5           C14   1.272       .  A
O6          Cu10   1.991   1_545  S
O6           C13   1.275   1_554  A
O7          Cu10   2.048       .  S
O7           C12   1.283   1_554  A
O8          Cu10   2.056   1_455  S
O8           C11   1.285       .  A
Cu9         Cu10   2.368   1_556  S
C11         C681   1.492       .  S
C12         C666   1.494       .  S
C13         C709   1.482       .  S
C14         C625   1.468       .  S
O15         Cu23   2.006       .  S
O15          C25   1.276       .  A
O16         Cu23   1.975       .  S
O16          C26   1.275       .  A
O17         Cu23   2.036       .  S
O17          C27   1.281       .  A
O18         Cu23   2.037       .  S
O18          C28   1.283       .  A
O19         Cu24   1.994       .  S
O19          C28   1.275       .  A
O20         Cu24   2.007       .  S
O20          C27   1.278       .  A
O21         Cu24   2.032       .  S
O21          C26   1.281       .  A
O22         Cu24   2.034       .  S
O22          C25   1.282       .  A
Cu23        Cu24   2.366       .  S
C25         C569   1.490       .  S
C26         C554   1.489       .  S
C27         C597   1.494       .  S
C28         C526   1.485       .  S
C29         C429   1.562       .  S
C29         C457   1.564       .  S
C29         C485   1.571       .  S
C29         C694   1.566       .  S
C30         C345   1.561       .  S
C30         C373   1.558       .  S
C30         C401   1.569       .  S
C30         C470   1.562       .  S
C31         C317   1.565       .  S
C31         C442   1.567       .  S
C31         C582   1.573       .  S
C31         C653   1.574       .  S
C32         C302   1.575       .  S
C32         C330   1.568       .  S
C32         C386   1.557       .  S
C32         C541   1.577       .  S
O33         Cu41   2.005   1_655  S
O33          C43   1.277       .  A
O34         Cu41   1.992       .  S
O34          C44   1.275       .  A
O35         Cu41   2.046       .  S
O35          C45   1.282   1_545  A
O36         Cu41   2.047       .  S
O36          C46   1.284       .  A
O37         Cu42   1.982       .  S
O37          C46   1.274       .  A
O38         Cu42   1.997   1_565  S
O38          C45   1.275       .  A
O39         Cu42   2.020       .  S
O39          C44   1.280       .  A
O40         Cu42   2.033       .  S
O40          C43   1.282   1_455  A
Cu41        Cu42   2.366       .  S
C43         C289   1.496       .  S
C44         C414   1.476       .  S
C45         C261   1.482       .  S
C46         C233   1.496       .  S
O47         Cu55   1.980       .  S
O47          C57   1.274       .  A
O48         Cu55   1.989       .  S
O48          C58   1.276       .  A
O49         Cu55   2.029       .  S
O49          C59   1.281       .  A
O50         Cu55   2.028       .  S
O50          C60   1.280       .  A
O51         Cu56   1.994       .  S
O51          C60   1.277       .  A
O52         Cu56   1.984       .  S
O52          C59   1.274       .  A
O53         Cu56   2.022       .  S
O53          C58   1.280       .  A
O54         Cu56   2.020       .  S
O54          C57   1.279       .  A
Cu55        Cu56   2.367       .  S
C57         C177   1.473       .  S
C58         C205   1.487       .  S
C59         C498   1.489       .  S
C60         C358   1.493       .  S
C61         C121   1.572       .  S
C61         C162   1.570       .  S
C61         C246   1.574       .  S
C61         C610   1.574       .  S
C62          C93   1.583       .  S
C62         C134   1.567       .  S
C62         C513   1.579       .  S
C62         C722   1.567       .  S
C63          C65   1.585       .  S
C63         C149   1.559       .  S
C63         C190   1.578       .  S
C63         C274   1.583       .  S
C64          C78   1.576       .  S
C64         C106   1.559       .  S
C64         C218   1.570       .  S
C64         C638   1.570       .  S
C65          C66   1.427       .  A
C65          C70   1.422       .  A
C66          C67   1.411   1_455  A
C66          N71   1.431   1_455  S
C67          C68   1.407       .  A
C67          H72   1.082       .  S
C68          C73   1.504       .  S
C68          C69   1.406   1_655  A
C69          C70   1.399       .  A
C69          N74   1.440       .  S
C70          H75   1.072       .  S
N71          H91   1.045       .  S
N71          H92   1.046       .  S
C73          C76   1.404       .  A
C73          C80   1.410       .  A
N74          H89   1.045       .  S
N74          H90   1.046       .  S
C76          C77   1.398       .  A
C76          H81   1.082   1_655  S
C77          C78   1.420       .  A
C77          N82   1.430       .  S
C78          C79   1.424       .  A
C79          C80   1.410       .  A
C79          H83   1.076       .  S
C80          N84   1.438       .  S
N82          H85   1.045   1_655  S
N82          H86   1.046       .  S
N84          H87   1.046       .  S
N84          H88   1.046       .  S
C93          C94   1.427       .  A
C93          C98   1.419       .  A
C94          C95   1.409       .  A
C94          N99   1.430       .  S
C95          C96   1.403   1_556  A
C95         H100   1.083   1_556  S
C96         C101   1.498       .  S
C96          C97   1.409   1_554  A
C97          C98   1.401       .  A
C97         N102   1.440       .  S
C98         H103   1.073       .  S
N99         H119   1.046   1_655  S
N99         H120   1.046   1_655  S
C101        C104   1.400       .  A
C101        C108   1.414       .  A
N102        H117   1.046       .  S
N102        H118   1.046   1_556  S
C104        C105   1.394       .  A
C104        H109   1.083       .  S
C105        C106   1.422       .  A
C105        N110   1.433       .  S
C106        C107   1.415       .  A
C107        C108   1.414       .  A
C107        H111   1.080       .  S
C108        N112   1.437       .  S
N110        H113   1.045       .  S
N110        H114   1.046       .  S
N112        H115   1.046       .  S
N112        H116   1.046       .  S
C121        C122   1.427       .  A
C121        C126   1.417       .  A
C122        C123   1.403       .  A
C122        N127   1.433       .  S
C123        C124   1.398       .  A
C123        H128   1.084   1_455  S
C124        C129   1.484       .  S
C124        C125   1.412       .  A
C125        C126   1.404       .  A
C125        N130   1.438       .  S
C126        H131   1.079       .  S
N127        H147   1.046       .  S
N127        H148   1.046       .  S
C129        C132   1.396       .  A
C129        C136   1.405   1_455  A
N130        H145   1.046       .  S
N130        H146   1.044       .  S
C132        C133   1.401       .  A
C132        H137   1.084       .  S
C133        C134   1.429   1_455  A
C133        N138   1.432       .  S
C134        C135   1.418       .  A
C135        C136   1.411       .  A
C135        H139   1.083       .  S
C136        N140   1.436       .  S
N138        H141   1.046       .  S
N138        H142   1.046       .  S
N140        H143   1.046       .  S
N140        H144   1.045   1_655  S
C149        C150   1.440       .  A
C149        C154   1.416       .  A
C150        C151   1.392       .  A
C150        N155   1.436       .  S
C151        C152   1.395       .  A
C151        H156   1.084       .  S
C152        C157   1.489       .  S
C152        C153   1.415       .  A
C153        C154   1.404       .  A
C153        N158   1.439       .  S
C154        H159   1.078       .  S
N155        H175   1.041       .  S
N155        H176   1.042       .  S
C157        C160   1.402       .  A
C157        C164   1.405       .  A
N158        H173   1.044       .  S
N158        H174   1.046   1_455  S
C160        C161   1.405       .  A
C160        H165   1.084       .  S
C161        C162   1.425       .  A
C161        N166   1.433       .  S
C162        C163   1.418       .  A
C163        C164   1.398       .  A
C163        H167   1.076       .  S
C164        N168   1.433       .  S
N166        H169   1.046       .  S
N166        H170   1.046       .  S
N168        H171   1.046       .  S
N168        H172   1.046       .  S
C177        C178   1.413       .  A
C177        C182   1.403       .  A
C178        C179   1.406       .  A
C178        N183   1.438       .  S
C179        C180   1.402       .  A
C179        H184   1.084       .  S
C180        C185   1.477       .  S
C180        C181   1.408       .  A
C181        C182   1.401       .  A
C181        N186   1.438       .  S
C182        H187   1.084       .  S
N183        H203   1.045       .  S
N183        H204   1.046       .  S
C185        C188   1.390       .  A
C185        C192   1.403       .  A
N186        H201   1.046       .  S
N186        H202   1.046       .  S
C188        C189   1.392       .  A
C188        H193   1.085       .  S
C189        C190   1.446       .  A
C189        N194   1.436       .  S
C190        C191   1.420       .  A
C191        C192   1.406       .  A
C191        H195   1.075       .  S
C192        N196   1.438       .  S
N194        H197   1.042       .  S
N194        H198   1.041       .  S
N196        H199   1.045       .  S
N196        H200   1.046       .  S
C205        C206   1.416       .  A
C205        C210   1.409       .  A
C206        C207   1.407       .  A
C206        N211   1.437       .  S
C207        C208   1.401       .  A
C207        H212   1.084       .  S
C208        C213   1.478       .  S
C208        C209   1.405       .  A
C209        C210   1.402       .  A
C209        N214   1.438       .  S
C210        H215   1.083       .  S
N211        H231   1.046       .  S
N211        H232   1.046       .  S
C213        C216   1.397       .  A
C213        C220   1.401       .  A
N214        H229   1.046       .  S
N214        H230   1.046       .  S
C216        C217   1.405       .  A
C216        H221   1.084       .  S
C217        C218   1.430       .  A
C217        N222   1.431       .  S
C218        C219   1.420       .  A
C219        C220   1.400       .  A
C219        H223   1.083       .  S
C220        N224   1.438       .  S
N222        H225   1.046       .  S
N222        H226   1.046       .  S
N224        H227   1.046       .  S
N224        H228   1.046       .  S
C233        C234   1.420       .  A
C233        C238   1.408       .  A
C234        C235   1.400       .  A
C234        N239   1.433       .  S
C235        C236   1.398       .  A
C235        H240   1.084       .  S
C236        C241   1.488       .  S
C236        C237   1.412       .  A
C237        C238   1.413       .  A
C237        N242   1.438       .  S
C238        H243   1.083       .  S
N239        H259   1.046       .  S
N239        H260   1.046       .  S
C241        C244   1.400       .  A
C241        C248   1.408       .  A
N242        H257   1.045       .  S
N242        H258   1.046       .  S
C244        C245   1.407       .  A
C244        H249   1.084       .  S
C245        C246   1.426       .  A
C245        N250   1.433       .  S
C246        C247   1.417       .  A
C247        C248   1.404       .  A
C247        H251   1.077       .  S
C248        N252   1.439       .  S
N250        H253   1.045       .  S
N250        H254   1.046       .  S
N252        H255   1.046       .  S
N252        H256   1.046       .  S
C261        C262   1.410       .  A
C261        C266   1.404       .  A
C262        C263   1.403       .  A
C262        N267   1.433       .  S
C263        C264   1.400       .  A
C263        H268   1.084       .  S
C264        C269   1.487       .  S
C264        C265   1.413       .  A
C265        C266   1.415       .  A
C265        N270   1.437   1_455  S
C266        H271   1.083   1_455  S
N267        H287   1.046       .  S
N267        H288   1.046       .  S
C269        C272   1.393       .  A
C269        C276   1.412       .  A
N270        H285   1.046       .  S
N270        H286   1.045       .  S
C272        C273   1.402       .  A
C272        H277   1.085       .  S
C273        C274   1.438       .  A
C273        N278   1.432       .  S
C274        C275   1.419       .  A
C275        C276   1.409       .  A
C275        H279   1.084       .  S
C276        N280   1.438       .  S
N278        H281   1.046       .  S
N278        H282   1.046       .  S
N280        H283   1.045       .  S
N280        H284   1.044       .  S
C289        C290   1.421       .  A
C289        C294   1.408       .  A
C290        C291   1.407       .  A
C290        N295   1.438       .  S
C291        C292   1.400       .  A
C291        H296   1.084       .  S
C292        C297   1.488       .  S
C292        C293   1.409       .  A
C293        C294   1.410       .  A
C293        N298   1.437       .  S
C294        H299   1.083       .  S
N295        H315   1.046       .  S
N295        H316   1.046       .  S
C297        C300   1.394       .  A
C297        C304   1.405       .  A
N298        H313   1.046   1_545  S
N298        H314   1.046       .  S
C300        C301   1.399       .  A
C300        H305   1.084       .  S
C301        C302   1.441       .  A
C301        N306   1.434       .  S
C302        C303   1.419       .  A
C303        C304   1.409       .  A
C303        H307   1.076       .  S
C304        N308   1.438       .  S
N306        H309   1.040   1_545  S
N306        H310   1.041       .  S
N308        H311   1.045       .  S
N308        H312   1.046       .  S
C317        C318   1.426       .  A
C317        C322   1.418       .  A
C318        C319   1.400       .  A
C318        N323   1.432       .  S
C319        C320   1.396       .  A
C319        H324   1.084   1_565  S
C320        C325   1.476   1_565  S
C320        C321   1.405       .  A
C321        C322   1.406       .  A
C321        N326   1.438       .  S
C322        H327   1.077       .  S
N323        H343   1.046   1_565  S
N323        H344   1.046   1_565  S
C325        C328   1.395       .  A
C325        C332   1.401       .  A
N326        H341   1.046       .  S
N326        H342   1.044       .  S
C328        C329   1.400       .  A
C328        H333   1.085   1_545  S
C329        C330   1.431       .  A
C329        N334   1.432       .  S
C330        C331   1.420       .  A
C331        C332   1.407       .  A
C331        H335   1.077       .  S
C332        N336   1.438       .  S
N334        H337   1.046       .  S
N334        H338   1.046       .  S
N336        H339   1.046       .  S
N336        H340   1.044   1_545  S
C345        C346   1.428       .  A
C345        C350   1.417       .  A
C346        C347   1.405       .  A
C346        N351   1.432       .  S
C347        C348   1.397       .  A
C347        H352   1.084       .  S
C348        C353   1.479       .  S
C348        C349   1.410       .  A
C349        C350   1.399       .  A
C349        N354   1.438       .  S
C350        H355   1.082       .  S
N351        H371   1.045       .  S
N351        H372   1.046       .  S
C353        C356   1.402       .  A
C353        C360   1.405       .  A
N354        H369   1.046       .  S
N354        H370   1.044       .  S
C356        C357   1.411       .  A
C356        H361   1.084       .  S
C357        C358   1.418       .  A
C357        N362   1.437       .  S
C358        C359   1.409       .  A
C359        C360   1.401       .  A
C359        H363   1.083       .  S
C360        N364   1.439       .  S
N362        H365   1.046       .  S
N362        H366   1.046       .  S
N364        H367   1.045       .  S
N364        H368   1.045       .  S
C373        C374   1.427       .  A
C373        C378   1.413       .  A
C374        C375   1.404       .  A
C374        N379   1.432       .  S
C375        C376   1.396       .  A
C375        H380   1.084       .  S
C376        C381   1.470       .  S
C376        C377   1.404       .  A
C377        C378   1.395       .  A
C377        N382   1.437       .  S
C378        H383   1.081       .  S
N379        H399   1.046       .  S
N379        H400   1.046       .  S
C381        C384   1.391       .  A
C381        C388   1.406       .  A
N382        H397   1.046       .  S
N382        H398   1.045       .  S
C384        C385   1.395       .  A
C384        H389   1.084       .  S
C385        C386   1.429       .  A
C385        N390   1.432       .  S
C386        C387   1.416       .  A
C387        C388   1.408       .  A
C387        H391   1.079       .  S
C388        N392   1.438       .  S
N390        H393   1.046       .  S
N390        H394   1.046       .  S
N392        H395   1.045       .  S
N392        H396   1.045       .  S
C401        C402   1.423       .  A
C401        C406   1.421       .  A
C402        C403   1.404       .  A
C402        N407   1.431       .  S
C403        C404   1.401       .  A
C403        H408   1.084       .  S
C404        C409   1.486       .  S
C404        C405   1.402       .  A
C405        C406   1.399       .  A
C405        N410   1.433       .  S
C406        H411   1.080       .  S
N407        H427   1.045       .  S
N407        H428   1.046       .  S
C409        C412   1.404       .  A
C409        C416   1.411       .  A
N410        H425   1.046       .  S
N410        H426   1.046       .  S
C412        C413   1.402       .  A
C412        H417   1.084       .  S
C413        C414   1.409       .  A
C413        N418   1.432       .  S
C414        C415   1.403       .  A
C415        C416   1.404       .  A
C415        H419   1.084       .  S
C416        N420   1.432       .  S
N418        H421   1.046       .  S
N418        H422   1.046       .  S
N420        H423   1.046       .  S
N420        H424   1.046       .  S
C429        C430   1.423       .  A
C429        C434   1.414       .  A
C430        C431   1.399   1_554  A
C430        N435   1.433       .  S
C431        C432   1.400       .  A
C431        H436   1.084       .  S
C432        C437   1.489       .  S
C432        C433   1.416   1_556  A
C433        C434   1.402       .  A
C433        N438   1.438   1_565  S
C434        H439   1.081   1_565  S
N435        H455   1.046       .  S
N435        H456   1.045       .  S
C437        C440   1.402       .  A
C437        C444   1.406       .  A
N438        H453   1.045       .  S
N438        H454   1.044   1_554  S
C440        C441   1.406       .  A
C440        H445   1.084       .  S
C441        C442   1.425       .  A
C441        N446   1.432       .  S
C442        C443   1.416       .  A
C443        C444   1.397       .  A
C443        H447   1.075       .  S
C444        N448   1.433   1_556  S
N446        H449   1.046       .  S
N446        H450   1.045       .  S
N448        H451   1.046       .  S
N448        H452   1.046       .  S
C457        C458   1.428       .  A
C457        C462   1.417       .  A
C458        C459   1.405   1_565  A
C458        N463   1.432       .  S
C459        C460   1.395       .  A
C459        H464   1.084       .  S
C460        C465   1.472       .  S
C460        C461   1.399       .  A
C461        C462   1.395   1_545  A
C461        N466   1.433       .  S
C462        H467   1.079       .  S
N463        H483   1.046       .  S
N463        H484   1.046       .  S
C465        C468   1.395       .  A
C465        C472   1.400       .  A
N466        H481   1.046       .  S
N466        H482   1.046       .  S
C468        C469   1.402       .  A
C468        H473   1.084       .  S
C469        C470   1.431       .  A
C469        N474   1.431       .  S
C470        C471   1.420       .  A
C471        C472   1.400       .  A
C471        H475   1.082       .  S
C472        N476   1.438   1_545  S
N474        H477   1.046       .  S
N474        H478   1.046       .  S
N476        H479   1.046       .  S
N476        H480   1.046       .  S
C485        C486   1.426       .  A
C485        C490   1.421       .  A
C486        C487   1.406       .  A
C486        N491   1.432       .  S
C487        C488   1.398       .  A
C487        H492   1.084       .  S
C488        C493   1.479       .  S
C488        C489   1.402       .  A
C489        C490   1.401       .  A
C489        N494   1.439       .  S
C490        H495   1.078       .  S
N491        H511   1.046       .  S
N491        H512   1.046       .  S
C493        C496   1.398       .  A
C493        C500   1.408       .  A
N494        H509   1.046       .  S
N494        H510   1.046       .  S
C496        C497   1.399       .  A
C496        H501   1.084       .  S
C497        C498   1.418       .  A
C497        N502   1.433       .  S
C498        C499   1.408       .  A
C499        C500   1.409       .  A
C499        H503   1.083       .  S
C500        N504   1.437       .  S
N502        H505   1.046       .  S
N502        H506   1.046       .  S
N504        H507   1.046       .  S
N504        H508   1.046       .  S
C513        C514   1.428       .  A
C513        C518   1.419       .  A
C514        C515   1.403       .  A
C514        N519   1.432       .  S
C515        C516   1.398       .  A
C515        H520   1.084       .  S
C516        C521   1.491       .  S
C516        C517   1.416       .  A
C517        C518   1.406       .  A
C517        N522   1.437       .  S
C518        H523   1.084       .  S
N519        H539   1.045       .  S
N519        H540   1.046       .  S
C521        C524   1.403       .  A
C521        C528   1.411       .  A
N522        H537   1.046       .  S
N522        H538   1.044       .  S
C524        C525   1.408       .  A
C524        H529   1.084       .  S
C525        C526   1.415       .  A
C525        N530   1.437       .  S
C526        C527   1.405       .  A
C527        C528   1.406       .  A
C527        H531   1.084       .  S
C528        N532   1.432       .  S
N530        H533   1.046       .  S
N530        H534   1.044       .  S
N532        H535   1.045       .  S
N532        H536   1.046       .  S
C541        C542   1.438       .  A
C541        C546   1.419       .  A
C542        C543   1.391       .  A
C542        N547   1.430       .  S
C543        C544   1.386       .  A
C543        H548   1.086       .  S
C544        C549   1.479       .  S
C544        C545   1.413       .  A
C545        C546   1.411       .  A
C545        N550   1.437       .  S
C546        H551   1.082       .  S
N547        H567   1.045       .  S
N547        H568   1.046       .  S
C549        C552   1.402       .  A
C549        C556   1.406       .  A
N550        H565   1.046       .  S
N550        H566   1.044       .  S
C552        C553   1.411       .  A
C552        H557   1.084       .  S
C553        C554   1.416       .  A
C553        N558   1.437       .  S
C554        C555   1.409       .  A
C555        C556   1.398       .  A
C555        H559   1.083       .  S
C556        N560   1.439       .  S
N558        H561   1.046       .  S
N558        H562   1.046       .  S
N560        H563   1.046       .  S
N560        H564   1.046       .  S
C569        C570   1.416       .  A
C569        C574   1.404       .  A
C570        C571   1.410       .  A
C570        N575   1.438       .  S
C571        C572   1.404       .  A
C571        H576   1.084       .  S
C572        C577   1.493       .  S
C572        C573   1.412       .  A
C573        C574   1.408       .  A
C573        N578   1.438       .  S
C574        H579   1.083       .  S
N575        H595   1.046       .  S
N575        H596   1.046       .  S
C577        C580   1.398       .  A
C577        C584   1.407       .  A
N578        H593   1.045       .  S
N578        H594   1.046       .  S
C580        C581   1.405       .  A
C580        H585   1.084       .  S
C581        C582   1.431       .  A
C581        N586   1.431       .  S
C582        C583   1.418       .  A
C583        C584   1.408       .  A
C583        H587   1.082       .  S
C584        N588   1.438       .  S
N586        H589   1.046       .  S
N586        H590   1.046       .  S
N588        H591   1.046       .  S
N588        H592   1.046       .  S
C597        C598   1.414       .  A
C597        C602   1.408       .  A
C598        C599   1.409       .  A
C598        N603   1.432       .  S
C599        C600   1.406       .  A
C599        H604   1.084       .  S
C600        C605   1.495       .  S
C600        C601   1.411       .  A
C601        C602   1.408       .  A
C601        N606   1.438       .  S
C602        H607   1.083       .  S
N603        H623   1.045       .  S
N603        H624   1.046       .  S
C605        C608   1.401       .  A
C605        C612   1.407       .  A
N606        H621   1.046       .  S
N606        H622   1.046       .  S
C608        C609   1.406       .  A
C608        H613   1.084       .  S
C609        C610   1.425       .  A
C609        N614   1.433       .  S
C610        C611   1.420       .  A
C611        C612   1.409       .  A
C611        H615   1.077       .  S
C612        N616   1.438       .  S
N614        H617   1.046       .  S
N614        H618   1.046       .  S
N616        H619   1.046       .  S
N616        H620   1.046       .  S
C625        C626   1.411       .  A
C625        C630   1.399       .  A
C626        C627   1.401       .  A
C626        N631   1.439       .  S
C627        C628   1.400       .  A
C627        H632   1.084       .  S
C628        C633   1.481       .  S
C628        C629   1.414       .  A
C629        C630   1.407       .  A
C629        N634   1.438   1_655  S
C630        H635   1.084   1_655  S
N631        H651   1.046       .  S
N631        H652   1.046       .  S
C633        C636   1.392       .  A
C633        C640   1.406       .  A
N634        H649   1.046       .  S
N634        H650   1.046       .  S
C636        C637   1.397       .  A
C636        H641   1.084       .  S
C637        C638   1.437       .  A
C637        N642   1.433       .  S
C638        C639   1.418       .  A
C639        C640   1.406       .  A
C639        H643   1.083       .  S
C640        N644   1.437       .  S
N642        H645   1.046       .  S
N642        H646   1.046       .  S
N644        H647   1.046       .  S
N644        H648   1.046       .  S
C653        C654   1.430       .  A
C653        C658   1.419       .  A
C654        C655   1.400       .  A
C654        N659   1.432       .  S
C655        C656   1.396       .  A
C655        H660   1.084       .  S
C656        C661   1.486       .  S
C656        C657   1.405       .  A
C657        C658   1.410       .  A
C657        N662   1.437       .  S
C658        H663   1.083       .  S
N659        H679   1.046       .  S
N659        H680   1.046       .  S
C661        C664   1.405       .  A
C661        C668   1.405       .  A
N662        H677   1.046       .  S
N662        H678   1.046       .  S
C664        C665   1.414       .  A
C664        H669   1.084       .  S
C665        C666   1.416       .  A
C665        N670   1.437   1_556  S
C666        C667   1.411       .  A
C667        C668   1.400       .  A
C667        H671   1.083       .  S
C668        N672   1.439       .  S
N670        H673   1.046       .  S
N670        H674   1.046   1_565  S
N672        H675   1.046       .  S
N672        H676   1.046       .  S
C681        C682   1.419       .  A
C681        C686   1.407   1_565  A
C682        C683   1.397       .  A
C682        N687   1.433   1_554  S
C683        C684   1.396       .  A
C683        H688   1.084       .  S
C684        C689   1.486       .  S
C684        C685   1.413       .  A
C685        C686   1.414   1_565  A
C685        N690   1.437   1_565  S
C686        H691   1.083       .  S
N687        H707   1.046       .  S
N687        H708   1.046       .  S
C689        C692   1.395       .  A
C689        C696   1.409       .  A
N690        H705   1.046       .  S
N690        H706   1.046       .  S
C692        C693   1.402       .  A
C692        H697   1.084   1_565  S
C693        C694   1.428       .  A
C693        N698   1.433   1_565  S
C694        C695   1.414       .  A
C695        C696   1.407       .  A
C695        H699   1.079       .  S
C696        N700   1.438       .  S
N698        H701   1.046       .  S
N698        H702   1.046       .  S
N700        H703   1.046       .  S
N700        H704   1.045       .  S
C709        C710   1.412   1_655  A
C709        C714   1.403       .  A
C710        C711   1.416   1_455  A
C710        N715   1.437       .  S
C711        C712   1.408       .  A
C711        H716   1.083   1_655  S
C712        C717   1.490       .  S
C712        C713   1.407       .  A
C713        C714   1.398       .  A
C713        N718   1.433       .  S
C714        H719   1.084       .  S
N715        H735   1.046       .  S
N715        H736   1.046       .  S
C717        C720   1.399       .  A
C717        C724   1.406       .  A
N718        H733   1.045       .  S
N718        H734   1.046       .  S
C720        C721   1.409       .  A
C720        H725   1.084       .  S
C721        C722   1.428       .  A
C721        N726   1.431       .  S
C722        C723   1.416       .  A
C723        C724   1.402       .  A
C723        H727   1.077       .  S
C724        N728   1.433       .  S
N726        H729   1.045       .  S
N726        H730   1.045       .  S
N728        H731   1.046   1_556  S
N728        H732   1.046   1_556  S
