geometry optimzed in LAMMPS
_audit_creation_date              2020-11-30 
_audit_creation_method            'lammps2cif' 
_symmetry_space_group_name_H-M    'P1' 
_symmetry_Int_Tables_number       1 
_symmetry_cell_setting            triclinic 
loop_ 
_symmetry_equiv_pos_as_xyz 
  x,y,z 
_cell_length_a                    42.08618436 
_cell_length_b                    37.42795368140547 
_cell_length_c                    37.63853685631028 
_cell_angle_alpha                 93.39274879331549 
_cell_angle_beta                  90.52592240775499 
_cell_angle_gamma                 124.50046233640757 
loop_ 
_atom_site_label 
_atom_site_type_symbol 
_atom_site_fract_x 
_atom_site_fract_y 
_atom_site_fract_z 
_atom_site_charge 
C1          C  0.34296046  0.18935251  0.04947463     0.33000
C2          C  0.35051442  0.19224493  0.47737272     0.33000
C3          C  0.30367030  0.16758644  0.02957174    -0.03200
C4          C  0.36651988  0.23429713  0.03484979    -0.04000
C5          C  0.35990731  0.16641393  0.03161494    -0.03800
C6          C  0.31094403  0.16928685  0.49370796    -0.03200
C7          C  0.37204966  0.23785208  0.49617249    -0.04000
C8          C  0.36962033  0.17260707  0.49488808    -0.03900
C9          C  0.27307636  0.14963752  0.48202529    -0.29200
N10         N  0.25159729  0.13995389  0.51110745     0.17300
C11         C  0.26612437  0.14899338  0.03836761    -0.29200
H12         H  0.25547690  0.14442981  0.06495135     0.19200
C13         C  0.39183758  0.27962723  0.48619338    -0.28200
N14         N  0.40165463  0.30221989  0.02017744     0.16000
C15         C  0.38820976  0.27713618  0.04821530    -0.28200
C16         C  0.38815003  0.15348455  0.48406556    -0.28500
N17         N  0.39987331  0.14419726  0.51367663     0.16500
H18         H  0.39262146  0.14663445  0.45691526     0.19100
C19         C  0.37897869  0.14869600  0.04264500    -0.28500
H20         H  0.38460265  0.14504260  0.06985249     0.19100
H21         H  0.39364968  0.28917705  0.07597886     0.19100
H22         H  0.26210059  0.14393789  0.45466983     0.19200
H23         H  0.39673692  0.28973810  0.45930374     0.19100
C24         C  0.35879118  0.19373238  0.29930772     0.33000
C25         C  0.35348766  0.18681189  0.22714216     0.33000
C26         C  0.31787835  0.16875634  0.28233353    -0.03200
C27         C  0.37908514  0.23683667  0.28181459    -0.04000
C28         C  0.37580053  0.17089651  0.28114836    -0.03800
C29         C  0.31511990  0.16522824  0.24529055    -0.03200
C30         C  0.37633452  0.23315887  0.24470305    -0.04000
C31         C  0.37315497  0.16732104  0.24398549    -0.03900
C32         C  0.27689709  0.14529822  0.23498630    -0.29200
N33         N  0.25684740  0.13684439  0.26487781     0.17300
C34         C  0.28132184  0.15089090  0.29396936    -0.29200
H35         H  0.27321839  0.14925593  0.32134710     0.19200
C36         C  0.39538316  0.27441576  0.23353704    -0.28200
N37         N  0.40940667  0.30264989  0.26292856     0.16000
C38         C  0.39975755  0.28040654  0.29257461    -0.28200
C39         C  0.39116359  0.14770636  0.23259651    -0.28500
N40         N  0.40445270  0.13959490  0.26188601     0.16500
H41         H  0.39456829  0.14014125  0.20528371     0.19100
C42         C  0.39525393  0.15340862  0.29162657    -0.28500
H43         H  0.40242149  0.15110360  0.31871937     0.19100
H44         H  0.40707215  0.29487997  0.31972424     0.19100
H45         H  0.26470190  0.13849067  0.20799232     0.19200
H46         H  0.39865150  0.28329633  0.20630073     0.19100
C47         C  0.12976093  0.07296281  0.01466408     0.79500
Tb48       Tb  0.46392133  0.01719183  0.02028608     1.80700
O49         O  0.11795265  0.05977654  0.04482550    -0.48600
O50         O  0.05501756  0.46870201  0.05504094    -0.56000
C51         C  0.05038832  0.09941149  0.03099792     0.95300
O52         O  0.45731788  0.06971930  0.54670910    -0.55500
Tb53       Tb  0.05191136  0.01555257  0.02796629     1.78100
O54         O  0.39779731  0.45833542  0.00574741    -0.56000
O55         O  0.49498194  0.45240626  0.00424690    -0.74800
O56         O  0.06059580  0.08029234  0.04967532    -0.74200
O57         O  0.03156577  0.01530654  0.46278190    -0.59400
C58         C  0.46631722  0.43316141  0.02350451     0.94900
O59         O  0.47864938  0.02068983  0.08196565    -0.71400
C60         C  0.38661511  0.95613386  0.03188568     0.78300
C61         C  0.06913431  0.45632875  0.03200428     0.79300
O62         O  0.11405841  0.04466306  0.49030497    -0.56600
O63         O  0.07272594  0.47160405  0.00221974    -0.48600
O64         O  0.46781875  0.99020149  0.46791078    -0.74600
O65         O  0.02730756  0.01056468  0.08583826    -0.58600
C66         C  0.00860499  0.02423695  0.10118033     0.93100
C67         C  0.00335922  0.01578930  0.45094733     0.94300
C68         C  0.44268142  0.07222480  0.51838679     0.78600
O69         O  0.41345793  0.96588106  0.05421182    -0.48000
O70         O  0.43405627  0.54672513  0.49107789    -0.49100
O71         O  0.45730715  0.45425805  0.04327113    -0.62000
O72         O  0.02079137  0.07821525  0.00997630    -0.63100
C73         C  0.14179665  0.07356608  0.26902243     0.79500
Tb74       Tb  0.47111047  0.01311018  0.27825840     1.80700
O75         O  0.12536335  0.07309777  0.29701147    -0.48600
O76         O  0.06037966  0.46856634  0.30504353    -0.56000
C77         C  0.06053793  0.10149389  0.28041068     0.95300
O78         O  0.45064802  0.05732539  0.29815222    -0.55500
Tb79       Tb  0.06271208  0.01698702  0.27544200     1.78100
O80         O  0.40164742  0.47282648  0.25237098    -0.56000
O81         O  0.99604727  0.45207236  0.24986962    -0.74800
O82         O  0.06937059  0.08073208  0.25991615    -0.74200
O83         O  0.03447308  0.99703637  0.21791872    -0.59400
C84         C  0.47126576  0.43317208  0.26675016     0.94900
O85         O  0.48992943  0.00695920  0.33621922    -0.71400
C86         C  0.39265216  0.95394192  0.28869588     0.78300
C87         C  0.07559270  0.45772298  0.28192948     0.79300
O88         O  0.11908497  0.04753035  0.24377085    -0.56600
O89         O  0.07878565  0.47345492  0.25242969    -0.48600
O90         O  0.49123381  0.01731907  0.21892909    -0.74600
O91         O  0.05205922  0.03078735  0.33380703    -0.58600
C92         C  0.02214094  0.02121011  0.35000869     0.93100
C93         C  0.01712586  0.01012081  0.20111976     0.94300
C94         C  0.45157358  0.07200731  0.26872867     0.78600
O95         O  0.41827341  0.96911890  0.31351271    -0.48000
O96         O  0.43647175  0.54051681  0.23661724    -0.49100
O97         O  0.46340355  0.45317959  0.24655043    -0.62000
O98         O  0.03145332  0.08157350  0.29903812    -0.63100
C99         C  0.16663587  0.34107823  0.00443866     0.33000
C100        C  0.16945761  0.34445029  0.07651972     0.33000
C101        C  0.14903281  0.36297601  0.02283620    -0.03200
C102        C  0.14568691  0.29708520  0.02036775    -0.04000
C103        C  0.20691909  0.36517755  0.02244529    -0.03800
C104        C  0.15034954  0.36476324  0.05994606    -0.03200
C105        C  0.14710777  0.29880874  0.05745548    -0.04000
C106        C  0.20861457  0.36697177  0.05947747    -0.03900
C107        C  0.13081293  0.38257605  0.07140424    -0.29200
N108        N  0.11797518  0.39129131  0.04214130     0.17300
C109        C  0.12886926  0.37957994  0.01241757    -0.29200
H110        H  0.12209940  0.38239292  0.98532806     0.19200
C111        C  0.12702130  0.25675656  0.06698831    -0.28200
N112        N  0.11370846  0.23010465  0.03662557     0.16000
C113        C  0.12480815  0.25406459  0.00797942    -0.28200
C114        C  0.24662199  0.38583578  0.07033514    -0.28500
N115        N  0.26731908  0.39523156  0.04074200     0.16500
H116        H  0.25818120  0.39120155  0.09743777     0.19100
C117        C  0.24357232  0.38285322  0.01138712    -0.28500
H118        H  0.25222875  0.38541643  0.98416013     0.19100
H119        H  0.12167548  0.24537583  0.48218021     0.19100
H120        H  0.12582278  0.38818851  0.09868463     0.19200
H121        H  0.12239082  0.24626534  0.09375816     0.19100
C122        C  0.17609758  0.34469906  0.25501472     0.33000
C123        C  0.17762092  0.34689446  0.32704152     0.33000
C124        C  0.15914768  0.36741893  0.27337838    -0.03200
C125        C  0.15392972  0.30029728  0.27046532    -0.04000
C126        C  0.21622251  0.36755229  0.27352906    -0.03800
C127        C  0.15975759  0.36859209  0.31039888    -0.03200
C128        C  0.15470821  0.30138493  0.30749603    -0.04000
C129        C  0.21720064  0.36875537  0.31059510    -0.03900
C130        C  0.14022835  0.38661436  0.32164225    -0.29200
N131        N  0.12813824  0.39613807  0.29230885     0.17300
C132        C  0.13948866  0.38464577  0.26277606    -0.29200
H133        H  0.13300468  0.38757560  0.23562475     0.19200
C134        C  0.13475441  0.25900421  0.31648470    -0.28200
N135        N  0.12212744  0.23272065  0.28587252     0.16000
C136        C  0.13355037  0.25735404  0.25758561    -0.28200
C137        C  0.25487404  0.38606955  0.32202117    -0.28500
N138        N  0.27619358  0.39512815  0.29281726     0.16500
H139        H  0.26571935  0.39056430  0.34926614     0.19100
C140        C  0.25301161  0.38396300  0.26313444    -0.28500
H141        H  0.26208252  0.38646556  0.23604699     0.19100
H142        H  0.12795994  0.24495390  0.22989221     0.18300
H143        H  0.13440103  0.39139177  0.34882288     0.19200
H144        H  0.13025317  0.24809448  0.34311436     0.19100
C145        C  0.17305550  0.34435677  0.46665167    -0.15500
C146        C  0.17446398  0.34504468  0.43482904     0.08600
C147        C  0.17672476  0.34662617  0.39770015     0.10400
C148        C  0.17792003  0.34743893  0.36587030    -0.16400
C149        C  0.17513793  0.34387496  0.21618955    -0.15500
C150        C  0.17401295  0.34441549  0.18435826     0.08600
C151        C  0.17242612  0.34541346  0.14720056     0.10400
C152        C  0.17100477  0.34566339  0.11535334    -0.16400
C153        C  0.08315518  0.14810343  0.28206656    -0.10300
C154        C  0.10130764  0.18724322  0.28378329    -0.11800
C155        C  0.31597662  0.41346401  0.29260677    -0.10300
C156        C  0.35025753  0.43123766  0.28971004    -0.11800
C157        C  0.09052685  0.43234281  0.28882842    -0.10300
C158        C  0.10706969  0.41473483  0.29181339    -0.11800
C159        C  0.09176146  0.18476819  0.03504755    -0.10300
C160        C  0.07286869  0.14575506  0.03338531    -0.11800
C161        C  0.34126570  0.43291084  0.03752376    -0.10300
C162        C  0.30703505  0.41457783  0.03991198    -0.11800
C163        C  0.08237667  0.42957039  0.03918046    -0.10300
C164        C  0.09778919  0.41080188  0.04198558    -0.11800
C165        C  0.99771631  0.01512642  0.41167991    -0.13400
C166        C  0.02496140  0.02120213  0.38934768    -0.28600
H167        H  0.96948460  0.49763667  0.40088176     0.15600
H168        H  0.05149574  0.02683093  0.40047853     0.16200
C169        C  0.01909678  0.00849676  0.16174451    -0.13400
C170        C  0.00639984  0.02593649  0.14052840    -0.28600
H171        H  0.03244587  0.99319234  0.14992281     0.15600
H172        H  0.48652417  0.53055469  0.15037258     0.16200
C173        C  0.43826211  0.09916194  0.26369430    -0.10300
C174        C  0.42349999  0.11875266  0.26187470    -0.11800
C175        C  0.44882044  0.38679732  0.26337120    -0.10300
C176        C  0.43047432  0.34783886  0.26269690    -0.11800
C177        C  0.21709372  0.11726797  0.26568778    -0.10300
C178        C  0.18275481  0.09909080  0.26682826    -0.11800
C179        C  0.43109412  0.10117358  0.51556442    -0.10300
C180        C  0.41773150  0.12216660  0.51410194    -0.11800
C181        C  0.44379254  0.38677098  0.02315827    -0.10300
C182        C  0.42444750  0.34769675  0.02233279    -0.11800
C183        C  0.16993678  0.09888482  0.00787815    -0.10300
C184        C  0.20432531  0.11764771  0.00621062    -0.11800
C185        C  0.35086629  0.19130138  0.43853712    -0.15500
C186        C  0.35393166  0.19303307  0.40688413     0.08600
C187        C  0.35837471  0.19577184  0.37000363     0.10400
C188        C  0.36050472  0.19656899  0.33822605    -0.16400
C189        C  0.34243439  0.18864653  0.08819683    -0.15500
C190        C  0.34361671  0.18643645  0.11981722     0.08600
C191        C  0.34678064  0.18410937  0.15662605     0.10400
C192        C  0.35013481  0.18389853  0.18830275    -0.16400
C193        C  0.35201941  0.19617117  0.54953075     0.33000
C194        C  0.34440515  0.18911067  0.97758485     0.33000
C195        C  0.31187819  0.17132693  0.53084431    -0.03200
C196        C  0.37284523  0.23996335  0.53325454    -0.04000
C197        C  0.37033276  0.17464329  0.53196361    -0.03800
C198        C  0.30432621  0.16744959  0.99256427    -0.03200
C199        C  0.36716706  0.23402679  0.99784701    -0.04000
C200        C  0.36074929  0.16631357  0.99468475    -0.03900
C201        C  0.26701408  0.14871858  0.97952135    -0.29200
N202        N  0.24428008  0.13780890  0.00775908     0.17300
C203        C  0.27477451  0.15292944  0.54102526    -0.29200
H204        H  0.26543414  0.15030461  0.56801704     0.19200
C205        C  0.38910019  0.27648242  0.98935520    -0.28200
N206        N  0.40434261  0.30658898  0.51628747     0.16000
C207        C  0.39313043  0.28309647  0.54522367    -0.28200
C208        C  0.38045245  0.14858066  0.98386064    -0.28500
N209        N  0.39130739  0.13814525  0.01334113     0.16500
H210        H  0.38745116  0.14481588  0.95689453     0.19100
C211        C  0.38921323  0.15678163  0.54305743    -0.28500
H212        H  0.39466659  0.15299140  0.57027338     0.19100
H213        H  0.39924461  0.29644449  0.57268963     0.19100
H214        H  0.25720738  0.14390372  0.95187206     0.19200
H215        H  0.39533863  0.28788258  0.96287340     0.19100
C216        C  0.35291854  0.19134635  0.79965802     0.33000
C217        C  0.35256755  0.19240118  0.72781267     0.33000
C218        C  0.31365298  0.17293173  0.78097282    -0.03200
C219        C  0.37834501  0.23627677  0.78555999    -0.04000
C220        C  0.36672490  0.16584030  0.78020404    -0.03800
C221        C  0.31332852  0.17338156  0.74404198    -0.03200
C222        C  0.37818049  0.23679562  0.74861928    -0.04000
C223        C  0.36660734  0.16637580  0.74320707    -0.03900
C224        C  0.27590217  0.15609730  0.73220910    -0.29200
N225        N  0.25409920  0.14557394  0.76111365     0.17300
C226        C  0.27664277  0.15557017  0.79099008    -0.29200
H227        H  0.26671206  0.15018679  0.81783372     0.19200
C228        C  0.40113504  0.27948610  0.74083312    -0.28200
N229        N  0.41494662  0.30442574  0.77207514     0.16000
C230        C  0.40134858  0.27869427  0.79962983    -0.28200
C231        C  0.38355250  0.14594806  0.73075092    -0.28500
N232        N  0.39369893  0.13329616  0.75925911     0.16500
H233        H  0.38932961  0.14195670  0.70335751     0.19100
C234        C  0.38368012  0.14515716  0.78954684    -0.28500
H235        H  0.38958856  0.14045852  0.81629668     0.19100
H236        H  0.40700587  0.29007798  0.82757761     0.19100
H237        H  0.26524857  0.15116728  0.70483552     0.19200
H238        H  0.40661463  0.29162023  0.71462132     0.19100
C239        C  0.13613268  0.07522462  0.51329450     0.79500
Tb240      Tb  0.45992024  0.01133363  0.52495811     1.80700
O241        O  0.11892350  0.07903432  0.53891740    -0.48600
O242        O  0.06600152  0.47655015  0.56221100    -0.56000
C243        C  0.05494453  0.10410980  0.53425203     0.95300
O244        O  0.46435465  0.07811099  0.04084394    -0.55500
Tb245      Tb  0.05666973  0.01902011  0.51957138     1.78100
O246        O  0.39938290  0.47655020  0.50331991    -0.56000
O247        O  0.49450921  0.45705710  0.54435985    -0.74800
O248        O  0.06415274  0.08496021  0.51233202    -0.74200
O249        O  0.03572905  0.02285921  0.96935600    -0.59400
C250        C  0.46715540  0.43697391  0.52094088     0.94900
O251        O  0.48601279  0.02722209  0.58328646    -0.71400
C252        C  0.38057446  0.95545099  0.53110310     0.78300
C253        C  0.07153505  0.45772597  0.53667427     0.79300
O254        O  0.10311352  0.05939354  0.99112071    -0.56600
O255        O  0.06325266  0.46428259  0.50667076    -0.48600
O256        O  0.48473591  0.01397484  0.96343626    -0.74600
O257        O  0.04422466  0.02102182  0.58074480    -0.58600
C258        C  0.02044265  0.02156968  0.60121439     0.93100
C259        C  0.00398093  0.01068036  0.95301839     0.94300
C260        C  0.44277246  0.07503307  0.01566223     0.78600
O261        O  0.40340174  0.98143946  0.55622203    -0.48000
O262        O  0.43832596  0.54880011  0.99282656    -0.49100
O263        O  0.45962283  0.45696451  0.50040746    -0.62000
O264        O  0.02666913  0.08322245  0.55370883    -0.63100
C265        C  0.13856544  0.07720374  0.76389890     0.79500
Tb266      Tb  0.46525694  0.01088786  0.76784701     1.80700
O267        O  0.12145955  0.07936736  0.79039047    -0.48600
O268        O  0.08577698  0.48571501  0.80830436    -0.56000
C269        C  0.05619026  0.10294833  0.78421428     0.95300
O270        O  0.46318540  0.07044001  0.78704281    -0.55500
Tb271      Tb  0.05956013  0.01900689  0.77083521     1.78100
O272        O  0.40733727  0.46769247  0.75881108    -0.56000
O273        O  0.99993205  0.45143577  0.79221238    -0.74800
O274        O  0.06456182  0.08323763  0.76203169    -0.74200
O275        O  0.03487913  0.01631889  0.71417613    -0.59400
C276        C  0.47770223  0.43514781  0.77768021     0.94900
O277        O  0.48012245  0.01427493  0.82920121    -0.71400
C278        C  0.38738739  0.95123312  0.78041826     0.78300
C279        C  0.07911407  0.45650253  0.78492987     0.79300
O280        O  0.11661670  0.04709001  0.74056398    -0.56600
O281        O  0.06043162  0.45399082  0.75738456    -0.48600
O282        O  0.48946368  0.01081439  0.71211118    -0.74600
O283        O  0.04905545  0.02305862  0.83243320    -0.58600
C284        C  0.02472507  0.02252197  0.85282868     0.93100
C285        C  0.00684060  0.01741880  0.70297562     0.94300
C286        C  0.44274906  0.06725216  0.76073520     0.78600
O287        O  0.41430960  0.96176473  0.80297434    -0.48000
O288        O  0.46067292  0.55736340  0.74233426    -0.49100
O289        O  0.46660289  0.45257486  0.75795045    -0.62000
O290        O  0.02916711  0.08273737  0.80499458    -0.63100
C291        C  0.17368745  0.34581570  0.50551836     0.33000
C292        C  0.17631868  0.34957293  0.57760035     0.33000
C293        C  0.15953439  0.37165332  0.52380973    -0.03200
C294        C  0.14959074  0.30190909  0.52168624    -0.04000
C295        C  0.21362392  0.36623741  0.52354043    -0.03800
C296        C  0.16071154  0.37355306  0.56093891    -0.03200
C297        C  0.15096034  0.30394094  0.55875017    -0.04000
C298        C  0.21514574  0.36821534  0.56057238    -0.03900
C299        C  0.14154519  0.39194507  0.57218946    -0.29200
N300        N  0.12922924  0.40122107  0.54288350     0.17300
C301        C  0.13991454  0.38898161  0.51326208    -0.29200
H302        H  0.13223579  0.39053642  0.48613437     0.19200
C303        C  0.12982518  0.26199507  0.56863293    -0.28200
N304        N  0.11589643  0.23493151  0.53851482     0.16000
C305        C  0.12767960  0.25864262  0.50965221    -0.28200
C306        C  0.25272260  0.38496520  0.57165422    -0.28500
N307        N  0.27343260  0.39287057  0.54218899     0.16500
H308        H  0.26409144  0.39072545  0.59885978     0.19100
C309        C  0.25003551  0.38168151  0.51271473    -0.28500
H310        H  0.25888075  0.38438457  0.48552897     0.19100
H311        H  0.11813408  0.24109541  0.98040125     0.19100
H312        H  0.13534516  0.39624459  0.59934444     0.19200
H313        H  0.12579848  0.25186069  0.59550749     0.19100
C314        C  0.18044889  0.34442142  0.75538469     0.33000
C315        C  0.18073837  0.34711397  0.82739841     0.33000
C316        C  0.16568885  0.36977702  0.77307240    -0.03200
C317        C  0.15579319  0.30030016  0.77100343    -0.04000
C318        C  0.21990336  0.36477682  0.77449170    -0.03800
C319        C  0.16573226  0.37113837  0.81011221    -0.03200
C320        C  0.15599399  0.30181749  0.80804349    -0.04000
C321        C  0.22019873  0.36618707  0.81158239    -0.03900
C322        C  0.14543065  0.38820112  0.82074503    -0.29200
N323        N  0.13353479  0.39718523  0.79107576     0.17300
C324        C  0.14545877  0.38601659  0.76184553    -0.29200
H325        H  0.13826489  0.38760507  0.73454200     0.19200
C326        C  0.13295273  0.25987933  0.81750023    -0.28200
N327        N  0.11902573  0.23332626  0.78713988     0.16000
C328        C  0.13259678  0.25729001  0.75852162    -0.28200
C329        C  0.25752427  0.38351044  0.82377208    -0.28500
N330        N  0.27929018  0.39232017  0.79498081     0.16500
H331        H  0.26803770  0.38905657  0.85126921     0.19100
C332        C  0.25684269  0.38120268  0.76480787    -0.28500
H333        H  0.26668810  0.38460141  0.73796041     0.19100
H334        H  0.12650581  0.24432106  0.73095222     0.18300
H335        H  0.13821693  0.39180831  0.84764446     0.19200
H336        H  0.12721004  0.24934174  0.84424929     0.19100
C337        C  0.16631136  0.34013621  0.96567264    -0.15500
C338        C  0.16977714  0.34213316  0.93413005     0.08600
C339        C  0.17566920  0.34560196  0.89757191     0.10400
C340        C  0.17965788  0.34756930  0.86609033    -0.16400
C341        C  0.18019925  0.34368050  0.71660876    -0.15500
C342        C  0.17971667  0.34550163  0.68491545     0.08600
C343        C  0.17876824  0.34871432  0.64805388     0.10400
C344        C  0.17770834  0.35048536  0.61638237    -0.16400
C345        C  0.07752574  0.14911764  0.78532159    -0.10300
C346        C  0.09627140  0.18803239  0.78589356    -0.11800
C347        C  0.31913090  0.41176938  0.79576940    -0.10300
C348        C  0.35353667  0.43055772  0.79425596    -0.11800
C349        C  0.09421121  0.43099133  0.78841897    -0.10300
C350        C  0.11136942  0.41417487  0.79031476    -0.11800
C351        C  0.09471022  0.18956906  0.53749405    -0.10300
C352        C  0.07664852  0.15054970  0.53649742    -0.11800
C353        C  0.34759392  0.43149163  0.53897265    -0.10300
C354        C  0.31325731  0.41227882  0.54170203    -0.11800
C355        C  0.08879407  0.43421512  0.54098844    -0.10300
C356        C  0.10686002  0.41823570  0.54269936    -0.11800
C357        C  0.00120946  0.01087146  0.91374257    -0.13400
C358        C  0.03026872  0.02248428  0.89194026    -0.28600
H359        H  0.96576528  0.50607357  0.90046927     0.15600
H360        H  0.05792476  0.03089982  0.90272200     0.16200
C361        C  0.00114967  0.01821780  0.66406299    -0.13400
C362        C  0.02610838  0.02102047  0.64015576    -0.28600
H363        H  0.97597125  0.01698874  0.65494437     0.15600
H364        H  0.47896321  0.53028923  0.65278481     0.16200
C365        C  0.42813645  0.09349210  0.75843133    -0.10300
C366        C  0.41283518  0.11257555  0.75807497    -0.11800
C367        C  0.45613572  0.38887056  0.77689692    -0.10300
C368        C  0.43742745  0.34983547  0.77517004    -0.11800
C369        C  0.21405805  0.12467470  0.76046228    -0.10300
C370        C  0.17950656  0.10475969  0.76132678    -0.11800
C371        C  0.42859382  0.10174868  0.01451922    -0.10300
C372        C  0.41234849  0.11972628  0.01372080    -0.11800
C373        C  0.44407863  0.39070559  0.51822724    -0.10300
C374        C  0.42553560  0.35178911  0.51720533    -0.11800
C375        C  0.17721744  0.10138928  0.51137531    -0.10300
C376        C  0.21168913  0.12005423  0.51069868    -0.11800
C377        C  0.34569823  0.18924161  0.93890716    -0.15500
C378        C  0.34783607  0.18962089  0.90716390     0.08600
C379        C  0.35073896  0.19022958  0.87011251     0.10400
C380        C  0.35258245  0.19078402  0.83835032    -0.16400
C381        C  0.35275325  0.19785945  0.58839870    -0.15500
C382        C  0.35286992  0.19734547  0.62025978     0.08600
C383        C  0.35269375  0.19537911  0.65738111     0.10400
C384        C  0.35253917  0.19357322  0.68912344    -0.16400
C385        C  0.34536017  0.69325010  0.04741755     0.33000
C386        C  0.33955361  0.68601912  0.47556279     0.33000
C387        C  0.30550047  0.66937934  0.02839606    -0.03200
C388        C  0.36715489  0.73712206  0.03126709    -0.04000
C389        C  0.36302788  0.67085745  0.03009067    -0.03800
C390        C  0.29962183  0.66494772  0.49096656    -0.03200
C391        C  0.36304502  0.73075162  0.49616752    -0.04000
C392        C  0.35543838  0.66237704  0.49207160    -0.03900
C393        C  0.26229649  0.64742849  0.47852324    -0.29200
N394        N  0.24002759  0.63701791  0.50711027     0.17300
C395        C  0.26830231  0.65066629  0.03826263    -0.29200
H396        H  0.25862124  0.64746047  0.06515370     0.19200
C397        C  0.38561772  0.77337149  0.48815014    -0.28200
N398        N  0.40075258  0.80382556  0.01451331     0.16000
C399        C  0.38852448  0.78023134  0.04337113    -0.28200
C400        C  0.37640826  0.64626827  0.48096127    -0.28500
N401        N  0.38803171  0.63631668  0.51025110     0.16500
H402        H  0.38411077  0.64380319  0.45399784     0.19100
C403        C  0.38209408  0.65330965  0.04146650    -0.28500
H404        H  0.38784518  0.65013495  0.06877640     0.19100
H405        H  0.39484199  0.79350578  0.07086539     0.19100
H406        H  0.25218200  0.64309693  0.45103880     0.19200
H407        H  0.39197397  0.78523615  0.46182866     0.19100
C408        C  0.34817506  0.68718954  0.29736273     0.33000
C409        C  0.34717740  0.68799124  0.22545574     0.33000
C410        C  0.30854130  0.66727704  0.27882902    -0.03200
C411        C  0.37232056  0.73216521  0.28309235    -0.04000
C412        C  0.36318903  0.66296861  0.27776185    -0.03800
C413        C  0.30797109  0.66762735  0.24188797    -0.03200
C414        C  0.37180928  0.73251920  0.24614348    -0.04000
C415        C  0.36273191  0.66340241  0.24072470    -0.03900
C416        C  0.27057744  0.65036655  0.23018094    -0.29200
N417        N  0.24895389  0.63993157  0.25915039     0.17300
C418        C  0.27157395  0.64995055  0.28898690    -0.29200
H419        H  0.26183166  0.64519209  0.31590182     0.19200
C420        C  0.39449174  0.77513289  0.23816629    -0.28200
N421        N  0.40847573  0.80022875  0.26930984     0.16000
C422        C  0.39526318  0.77466089  0.29698709    -0.28200
C423        C  0.38152091  0.64519049  0.22815237    -0.28500
N424        N  0.39306027  0.63388174  0.25658960     0.16500
H425        H  0.38768986  0.64197002  0.20073857     0.19100
C426        C  0.38217471  0.64449105  0.28696225    -0.28500
H427        H  0.38895347  0.64061510  0.31367419     0.19100
H428        H  0.40160267  0.78617978  0.32490271     0.19100
H429        H  0.25990797  0.64596046  0.20288185     0.19200
H430        H  0.40013908  0.78708267  0.21188246     0.19100
C431        C  0.13014700  0.57157115  0.01129296     0.79500
Tb432      Tb  0.46095898  0.51546368  0.02580230     1.80700
O433        O  0.11359261  0.57478391  0.03780057    -0.48600
O434        O  0.07133665  0.98009115  0.06311153    -0.56000
C435        C  0.05052648  0.60101097  0.03263275     0.95300
O436        O  0.46390987  0.58063859  0.54003696    -0.55500
Tb437      Tb  0.05109026  0.51538777  0.01874927     1.78100
O438        O  0.39803353  0.97524381  0.00356313    -0.56000
O439        O  0.49381433  0.95375016  0.04295445    -0.74800
O440        O  0.05835240  0.58089502  0.01032281    -0.74200
O441        O  0.03151486  0.51980012  0.46837585    -0.59400
C442        C  0.46640110  0.93410787  0.01957674     0.94900
O443        O  0.48807363  0.53183700  0.08373772    -0.71400
C444        C  0.38203119  0.45906893  0.03386611     0.78300
C445        C  0.07474412  0.95927657  0.03769139     0.79300
O446        O  0.09897447  0.55914585  0.49129647    -0.56600
O447        O  0.06486896  0.96435372  0.00781333    -0.48600
O448        O  0.48616563  0.51712764  0.46390428    -0.74600
O449        O  0.03909582  0.51841708  0.07993258    -0.58600
C450        C  0.01557161  0.51924959  0.10057259     0.93100
C451        C  0.99978016  0.50715294  0.45177572     0.94300
C452        C  0.44290749  0.57712946  0.51409877     0.78600
O453        O  0.40522108  0.48664514  0.05807839    -0.48000
O454        O  0.43738713  0.04545553  0.49318659    -0.49100
O455        O  0.45901858  0.95441981  0.99928996    -0.62000
O456        O  0.02237023  0.58106982  0.05236223    -0.63100
C457        C  0.13376216  0.57376367  0.26164097     0.79500
Tb458      Tb  0.46800726  0.51577871  0.26797208     1.80700
O459        O  0.11686251  0.57654792  0.28802609    -0.48600
O460        O  0.08992215  0.98761735  0.30683519    -0.56000
C461        C  0.05167311  0.59912888  0.28521109     0.95300
O462        O  0.46707783  0.57671563  0.28474449    -0.55500
Tb463      Tb  0.05513129  0.51525729  0.26966396     1.78100
O464        O  0.40578766  0.96694077  0.25883427    -0.56000
O465        O  0.00542768  0.95485743  0.29234832    -0.74800
O466        O  0.05991568  0.57974048  0.26250171    -0.74200
O467        O  0.02966805  0.51168617  0.21312717    -0.59400
C468        C  0.47437540  0.93104921  0.27503596     0.94900
O469        O  0.48251405  0.51872235  0.32947777    -0.71400
C470        C  0.39046674  0.45719884  0.28207023     0.78300
C471        C  0.08511485  0.96069061  0.28203939     0.79300
O472        O  0.11172853  0.54309603  0.23871108    -0.56600
O473        O  0.06792608  0.96027069  0.25423500    -0.48600
O474        O  0.49055188  0.51280076  0.21206921    -0.74600
O475        O  0.04494205  0.51892134  0.33127141    -0.58600
C476        C  0.02071033  0.51853426  0.35167977     0.93100
C477        C  0.00208416  0.51379105  0.20222614     0.94300
C478        C  0.44564338  0.57192444  0.25867565     0.78600
O479        O  0.41771142  0.46870417  0.30456515    -0.48000
O480        O  0.46334415  0.05879778  0.24407279    -0.49100
O481        O  0.46426360  0.94968317  0.25568304    -0.62000
O482        O  0.02415423  0.57858372  0.30544709    -0.63100
C483        C  0.17275899  0.84283767  0.00447066     0.33000
C484        C  0.17545108  0.84601388  0.07659929     0.33000
C485        C  0.15867396  0.86859311  0.02312408    -0.03200
C486        C  0.14868682  0.79881657  0.02044813    -0.04000
C487        C  0.21270363  0.86303067  0.02247013    -0.03800
C488        C  0.15992964  0.87020232  0.06024967    -0.03200
C489        C  0.15013179  0.80057949  0.05751559    -0.04000
C490        C  0.21418116  0.86470188  0.05951784    -0.03900
C491        C  0.14184135  0.88970169  0.07190113    -0.29200
N492        N  0.12997870  0.89983891  0.04283652     0.17300
C493        C  0.14001061  0.88717862  0.01297269    -0.29200
H494        H  0.13272677  0.88957910  0.98595244     0.19200
C495        C  0.12914275  0.75860960  0.06722289    -0.28200
N496        N  0.11513866  0.73178334  0.03700663     0.16000
C497        C  0.12678280  0.75562988  0.00823257    -0.28200
C498        C  0.25160499  0.88107336  0.07065974    -0.28500
N499        N  0.27234298  0.88907219  0.04124301     0.16500
H500        H  0.26286566  0.88654337  0.09787597     0.19100
C501        C  0.24909845  0.87828447  0.01171343    -0.28500
H502        H  0.25804595  0.88116518  0.98455878     0.19100
H503        H  0.11237158  0.73693667  0.47941073     0.19100
H504        H  0.13623753  0.89443558  0.09918100     0.19200
H505        H  0.12504585  0.74828378  0.09404200     0.19100
C506        C  0.17902814  0.83924588  0.25418148     0.33000
C507        C  0.17945603  0.84411323  0.32623191     0.33000
C508        C  0.16577493  0.86652925  0.27101608    -0.03200
C509        C  0.15324347  0.79581069  0.27063046    -0.04000
C510        C  0.21826774  0.85857486  0.27338241    -0.03800
C511        C  0.16587295  0.86898676  0.30804924    -0.03200
C512        C  0.15353975  0.79847305  0.30768859    -0.04000
C513        C  0.21863614  0.86117137  0.31049478    -0.03900
C514        C  0.14796906  0.88910713  0.31797946    -0.29200
N515        N  0.13739516  0.89879290  0.28787740     0.17300
C516        C  0.14794258  0.88524099  0.25904922    -0.29200
H517        H  0.14139814  0.88697693  0.23156703     0.19200
C518        C  0.13002905  0.75697187  0.31801995    -0.28200
N519        N  0.11571930  0.72954904  0.28815919     0.16000
C520        C  0.12952498  0.75253989  0.25903017    -0.28200
C521        C  0.25594443  0.87870064  0.32283418    -0.28500
N522        N  0.27762833  0.88635408  0.29413336     0.16500
H523        H  0.26661540  0.88573370  0.35039302     0.19100
C524        C  0.25513653  0.87435536  0.26384520    -0.28500
H525        H  0.26501259  0.87731856  0.23703470     0.19100
H526        H  0.12343686  0.73870044  0.23171703     0.18300
H527        H  0.14144793  0.89440973  0.34472939     0.19200
H528        H  0.12443166  0.74729696  0.34502591     0.19100
C529        C  0.16363706  0.83623886  0.46424266    -0.15500
C530        C  0.16731640  0.83886566  0.43275772     0.08600
C531        C  0.17385390  0.84326673  0.39634789     0.10400
C532        C  0.17831325  0.84551004  0.36493845    -0.16400
C533        C  0.17877415  0.83770405  0.21536525    -0.15500
C534        C  0.17849244  0.83988742  0.18369942     0.08600
C535        C  0.17781721  0.84403590  0.14695953     0.10400
C536        C  0.17686447  0.84650079  0.11537150    -0.16400
C537        C  0.07350497  0.64537598  0.28722576    -0.10300
C538        C  0.09261847  0.68430429  0.28774381    -0.11800
C539        C  0.31762351  0.90679476  0.29511208    -0.10300
C540        C  0.35213294  0.92648590  0.29383142    -0.11800
C541        C  0.10031694  0.93520194  0.28460386    -0.10300
C542        C  0.11676479  0.91758660  0.28646612    -0.11800
C543        C  0.09293937  0.68643220  0.03586204    -0.10300
C544        C  0.07365021  0.64741359  0.03489306    -0.11800
C545        C  0.34649322  0.92792849  0.03842549    -0.10300
C546        C  0.31214726  0.90853030  0.04095086    -0.11800
C547        C  0.09138245  0.93509134  0.04182059    -0.10300
C548        C  0.10868672  0.91818379  0.04313114    -0.11800
C549        C  0.99724235  0.50722261  0.41249445    -0.13400
C550        C  0.02630710  0.51859141  0.39077881    -0.28600
H551        H  0.97145223  0.01061727  0.40116068     0.15600
H552        H  0.05392687  0.52693920  0.40160789     0.16200
C553        C  0.99632661  0.51506220  0.16343848    -0.13400
C554        C  0.02136094  0.51842282  0.13941248    -0.28600
H555        H  0.97110208  0.51386943  0.15453862     0.15600
H556        H  0.47695786  0.02633312  0.15211690     0.16200
C557        C  0.43050918  0.59755540  0.25570468    -0.10300
C558        C  0.41400842  0.61529060  0.25526068    -0.11800
C559        C  0.45155676  0.88468704  0.27387879    -0.10300
C560        C  0.43185899  0.84563192  0.27220523    -0.11800
C561        C  0.20910461  0.62005837  0.25849728    -0.10300
C562        C  0.17463781  0.60092087  0.25906462    -0.11800
C563        C  0.42786958  0.60295309  0.51191742    -0.10300
C564        C  0.41055207  0.61968822  0.51056389    -0.11800
C565        C  0.44283148  0.88793092  0.01674718    -0.10300
C566        C  0.42332791  0.84903089  0.01558581    -0.11800
C567        C  0.17102827  0.59786754  0.00854585    -0.10300
C568        C  0.20546339  0.61698047  0.00754475    -0.11800
C569        C  0.34075850  0.68651661  0.43682891    -0.15500
C570        C  0.34315849  0.68679467  0.40506540     0.08600
C571        C  0.34633628  0.68689482  0.36796656     0.10400
C572        C  0.34816906  0.68694618  0.33614660    -0.16400
C573        C  0.34564798  0.69470787  0.08625978    -0.15500
C574        C  0.34568141  0.69373410  0.11807630     0.08600
C575        C  0.34598654  0.69119323  0.15510351     0.10400
C576        C  0.34655590  0.68911823  0.18678030    -0.16400
C577        C  0.33865786  0.68557284  0.54745957     0.33000
C578        C  0.34460787  0.68956793  0.97528896     0.33000
C579        C  0.29934319  0.66478714  0.52798180    -0.03200
C580        C  0.36261133  0.73055609  0.53315157    -0.04000
C581        C  0.35481278  0.66212415  0.52900714    -0.03800
C582        C  0.30493160  0.66744459  0.99127364    -0.03200
C583        C  0.36674329  0.73514487  0.99418586    -0.04000
C584        C  0.36271723  0.66895644  0.99303144    -0.03900
C585        C  0.26714242  0.64751145  0.97924998    -0.29200
N586        N  0.24541767  0.63762289  0.00815767     0.17300
C587        C  0.26215009  0.64733020  0.53736137    -0.29200
H588        H  0.25194346  0.64293655  0.56411227     0.19200
C589        C  0.38783880  0.77698536  0.98433983    -0.28200
N590        N  0.39863337  0.79859113  0.51926215     0.16000
C591        C  0.38494670  0.77311192  0.54699104    -0.28200
C592        C  0.38168509  0.65023731  0.98250823    -0.28500
N593        N  0.39325418  0.64102001  0.01227662     0.16500
H594        H  0.38705671  0.64420698  0.95547032     0.19100
C595        C  0.37518252  0.64583371  0.53970459    -0.28500
H596        H  0.38172812  0.64298450  0.56684903     0.19100
H597        H  0.39066929  0.78471776  0.57487035     0.19100
H598        H  0.25632241  0.64135938  0.95178984     0.19200
H599        H  0.39350130  0.78723382  0.95750316     0.19100
C600        C  0.35316104  0.68826558  0.79717930     0.33000
C601        C  0.34843218  0.68208879  0.72502308     0.33000
C602        C  0.31238382  0.66317063  0.77994795    -0.03200
C603        C  0.37342498  0.73150823  0.77999663    -0.04000
C604        C  0.37053672  0.66590170  0.77899407    -0.03800
C605        C  0.30987975  0.65995981  0.74289424    -0.03200
C606        C  0.37095824  0.72826818  0.74289977    -0.04000
C607        C  0.36820186  0.66273970  0.74182135    -0.03900
C608        C  0.27160822  0.63928646  0.73239761    -0.29200
N609        N  0.25134681  0.63017208  0.76220171     0.17300
C610        C  0.27569191  0.64447029  0.79140031    -0.29200
H611        H  0.26737639  0.64239371  0.81873306     0.19200
C612        C  0.39070109  0.76973895  0.73209791    -0.28200
N613        N  0.40486000  0.79761913  0.76172146     0.16000
C614        C  0.39466613  0.77496114  0.79113507    -0.28200
C615        C  0.38752129  0.64475556  0.73036766    -0.28500
N616        N  0.40124945  0.63718850  0.75963688     0.16500
H617        H  0.39180755  0.63827994  0.70304926     0.19100
C618        C  0.39111148  0.64977780  0.78942419    -0.28500
H619        H  0.39869968  0.64792671  0.81649471     0.19100
H620        H  0.40220187  0.78909353  0.81838496     0.19100
H621        H  0.25950441  0.63239936  0.70535838     0.19200
H622        H  0.39455843  0.77901191  0.70495739     0.19100
C623        C  0.12552556  0.57217908  0.51482266     0.79500
Tb624      Tb  0.46517722  0.52039400  0.52068120     1.80700
O625        O  0.11354234  0.55760977  0.54459448    -0.48600
O626        O  0.05887436  0.97103920  0.55562755    -0.56000
C627        C  0.04395029  0.59557704  0.53044956     0.95300
O628        O  0.45452042  0.57129433  0.04711649    -0.55500
Tb629      Tb  0.04755837  0.51300757  0.52717581     1.78100
O630        O  0.39686762  0.95615751  0.50295885    -0.56000
O631        O  0.49366425  0.94817099  0.50506406    -0.74800
O632        O  0.05431267  0.57664449  0.54919802    -0.74200
O633        O  0.02599125  0.51121548  0.96199571    -0.59400
C634        C  0.46499448  0.92938671  0.52431485     0.94900
O635        O  0.48012991  0.52387805  0.58248205    -0.71400
C636        C  0.38779686  0.45944285  0.53244947     0.78300
C637        C  0.07376475  0.95925579  0.53294860     0.79300
O638        O  0.10764296  0.54155504  0.98812097    -0.56600
O639        O  0.07880502  0.97566841  0.50349972    -0.48600
O640        O  0.46915055  0.49629709  0.96812104    -0.74600
O641        O  0.02302063  0.50817182  0.58513380    -0.58600
C642        C  0.00254087  0.51955450  0.60030373     0.93100
C643        C  0.99808454  0.51226274  0.95027896     0.94300
C644        C  0.44095099  0.57399080  0.01817500     0.78600
O645        O  0.41453962  0.47113639  0.55557291    -0.48000
O646        O  0.43271358  0.04442975  0.99238255    -0.49100
O647        O  0.45645309  0.95092791  0.54404225    -0.62000
O648        O  0.01455369  0.57422687  0.50919039    -0.63100
C649        C  0.13652775  0.56773774  0.76756025     0.79500
Tb650      Tb  0.47246620  0.51619904  0.77832994     1.80700
O651        O  0.12108250  0.56835915  0.79593325    -0.48600
O652        O  0.06336968  0.97070044  0.80530819    -0.56000
C653        C  0.05546120  0.59766436  0.77970218     0.95300
O654        O  0.45408839  0.56255869  0.79743620    -0.55500
Tb655      Tb  0.05762581  0.51324062  0.77572435     1.78100
O656        O  0.39905729  0.96812751  0.75121367    -0.56000
O657        O  0.00041403  0.95613274  0.75072503    -0.74800
O658        O  0.06422939  0.57660972  0.75955453    -0.74200
O659        O  0.03106659  0.49537039  0.71753636    -0.59400
C660        C  0.46840415  0.92827284  0.76650233     0.94900
O661        O  0.49167161  0.51155273  0.83653039    -0.71400
C662        C  0.39405953  0.45730357  0.78904983     0.78300
C663        C  0.07785966  0.95939659  0.78175658     0.79300
O664        O  0.11296000  0.54161276  0.74279604    -0.56600
O665        O  0.08156071  0.97591618  0.75257363    -0.48600
O666        O  0.49353934  0.52192798  0.71942685    -0.74600
O667        O  0.04768010  0.52985131  0.83350083    -0.58600
C668        C  0.01741168  0.51901147  0.84964197     0.93100
C669        C  0.01283366  0.50741585  0.70070213     0.94300
C670        C  0.45165771  0.57352274  0.76714953     0.78600
O671        O  0.41953485  0.47472996  0.81411459    -0.48000
O672        O  0.43447939  0.03721504  0.73747953    -0.49100
O673        O  0.46095213  0.94855571  0.74621656    -0.62000
O674        O  0.02616843  0.57822420  0.79811304    -0.63100
C675        C  0.16447723  0.83714040  0.50301026     0.33000
C676        C  0.16855373  0.84083483  0.57507469     0.33000
C677        C  0.14839085  0.86042955  0.52192341    -0.03200
C678        C  0.14269320  0.79319465  0.51908574    -0.04000
C679        C  0.20494523  0.86006692  0.52037217    -0.03800
C680        C  0.15034204  0.86235450  0.55902547    -0.03200
C681        C  0.14479535  0.79512450  0.55617207    -0.04000
C682        C  0.20729286  0.86205169  0.55739341    -0.03900
C683        C  0.13209844  0.88148466  0.57104345    -0.29200
N684        N  0.11942699  0.89087581  0.54210714     0.17300
C685        C  0.12915278  0.87830331  0.51204941    -0.29200
H686        H  0.12221524  0.88141045  0.48511849     0.19200
C687        C  0.12338199  0.75315753  0.56592665    -0.28200
N688        N  0.10857909  0.72631383  0.53570122     0.16000
C689        C  0.12002859  0.75008794  0.50692294    -0.28200
C690        C  0.24549424  0.88123410  0.56764898    -0.28500
N691        N  0.26566419  0.89056022  0.53771021     0.16500
H692        H  0.25762082  0.88729687  0.59460492     0.19100
C693        C  0.24140691  0.87793368  0.50871337    -0.28500
H694        H  0.24965929  0.88089400  0.48133598     0.19100
H695        H  0.12049173  0.74250237  0.98071444     0.19100
H696        H  0.12786988  0.88755682  0.59847718     0.19200
H697        H  0.11884077  0.74285450  0.59275881     0.19100
C698        C  0.17314625  0.84031024  0.75350907     0.33000
C699        C  0.17474805  0.84283441  0.82558610     0.33000
C700        C  0.15632706  0.86323544  0.77175344    -0.03200
C701        C  0.15089783  0.79603934  0.76910344    -0.04000
C702        C  0.21325331  0.86311566  0.77200084    -0.03800
C703        C  0.15700590  0.86458367  0.80879709    -0.03200
C704        C  0.15168078  0.79729882  0.80615203    -0.04000
C705        C  0.21429819  0.86445489  0.80907387    -0.03900
C706        C  0.13830072  0.88357379  0.82000688    -0.29200
N707        N  0.12661165  0.89350369  0.79066424     0.17300
C708        C  0.13743012  0.88134147  0.76111659    -0.29200
H709        H  0.13136636  0.88474061  0.73396771     0.19200
C710        C  0.13129294  0.75500032  0.81528015    -0.28200
N711        N  0.11847421  0.72863874  0.78473394     0.16000
C712        C  0.13013274  0.75307446  0.75634231    -0.28200
C713        C  0.25195132  0.88148406  0.82040378    -0.28500
N714        N  0.27316855  0.89028085  0.79113672     0.16500
H715        H  0.26281826  0.88586067  0.84762264     0.19100
C716        C  0.24994985  0.87923602  0.76151695    -0.28500
H717        H  0.25890473  0.88150047  0.73440279     0.19100
H718        H  0.12432427  0.74050474  0.72868429     0.18300
H719        H  0.13300638  0.88905983  0.84721073     0.19200
H720        H  0.12652593  0.74417196  0.84194654     0.19100
C721        C  0.17190873  0.84150799  0.96553693    -0.15500
C722        C  0.17271361  0.84187121  0.93363207     0.08600
C723        C  0.17423807  0.84296313  0.89637432     0.10400
C724        C  0.17508816  0.84351724  0.86448076    -0.16400
C725        C  0.17231625  0.83927640  0.71468149    -0.15500
C726        C  0.17186766  0.83991875  0.68284526     0.08600
C727        C  0.17133636  0.84140548  0.64570635     0.10400
C728        C  0.17047424  0.84206904  0.61388352    -0.16400
C729        C  0.07851796  0.64413574  0.78124635    -0.10300
C730        C  0.09712953  0.68321802  0.78281046    -0.11800
C731        C  0.31283399  0.90797523  0.79074540    -0.10300
C732        C  0.34704955  0.92527901  0.78770875    -0.11800
C733        C  0.09145866  0.93256663  0.78784177    -0.10300
C734        C  0.10684666  0.91362586  0.79032129    -0.11800
C735        C  0.08558522  0.68096493  0.53435921    -0.10300
C736        C  0.06625658  0.64193605  0.53284243    -0.11800
C737        C  0.33970315  0.92926165  0.53400994    -0.10300
C738        C  0.30543283  0.91053821  0.53636112    -0.11800
C739        C  0.08602726  0.93161074  0.54008869    -0.10300
C740        C  0.10045311  0.91176302  0.54253458    -0.11800
C741        C  0.99244175  0.51165760  0.91108090    -0.13400
C742        C  0.02027592  0.51922003  0.88895195    -0.28600
H743        H  0.97340511  0.00128201  0.90224827     0.15600
H744        H  0.04725398  0.52613164  0.90022767     0.16200
C745        C  0.01512625  0.50623949  0.66126856    -0.13400
C746        C  0.00031493  0.52126086  0.63974436    -0.28600
H747        H  0.03026706  0.49300978  0.64961552     0.15600
H748        H  0.48553239  0.02799946  0.65013347     0.16200
C749        C  0.43752188  0.59968722  0.76155016    -0.10300
C750        C  0.42173754  0.61808905  0.75957516    -0.11800
C751        C  0.44553767  0.88188581  0.76304883    -0.10300
C752        C  0.42665883  0.84288126  0.76196760    -0.11800
C753        C  0.21157169  0.61027948  0.76295793    -0.10300
C754        C  0.17731187  0.59231368  0.76446346    -0.11800
C755        C  0.42747719  0.60120337  0.01486316    -0.10300
C756        C  0.41259905  0.62062243  0.01306422    -0.11800
C757        C  0.44176100  0.88305641  0.52362784    -0.10300
C758        C  0.42195011  0.84400428  0.52209096    -0.11800
C759        C  0.16578341  0.59878699  0.50825652    -0.10300
C760        C  0.20014926  0.61749207  0.50620707    -0.11800
C761        C  0.34526426  0.68857313  0.93648166    -0.15500
C762        C  0.34828737  0.68956339  0.90480503     0.08600
C763        C  0.35257614  0.69103854  0.86787244     0.10400
C764        C  0.35467121  0.69103609  0.83607934    -0.16400
C765        C  0.33852259  0.68472601  0.58614449    -0.15500
C766        C  0.33983156  0.68254459  0.61773803     0.08600
C767        C  0.34270847  0.68008589  0.65452929     0.10400
C768        C  0.34556963  0.67959628  0.68620873    -0.16400
C769        C  0.84400242  0.19117957  0.05226469     0.33000
C770        C  0.84492763  0.18522656  0.47938874     0.33000
C771        C  0.80432662  0.17088427  0.03360965    -0.03200
C772        C  0.86862727  0.23505753  0.03616925    -0.04000
C773        C  0.85817008  0.16523391  0.03449064    -0.03800
C774        C  0.80449490  0.16049228  0.49415676    -0.03200
C775        C  0.86498012  0.22999533  0.49958506    -0.04000
C776        C  0.86412160  0.16560895  0.49679207    -0.03900
C777        C  0.76713189  0.14215672  0.48123513    -0.29200
N778        N  0.74434990  0.13131988  0.50948298     0.17300
C779        C  0.76757189  0.15474520  0.04372013    -0.29200
H780        H  0.75814822  0.15178832  0.07070130     0.19200
C781        C  0.88527438  0.27240344  0.49101982    -0.28200
N782        N  0.90399368  0.30190785  0.01929766     0.16000
C783        C  0.89127611  0.27829922  0.04818802    -0.28200
C784        C  0.88569199  0.15015339  0.48603861    -0.28500
N785        N  0.89781408  0.14112117  0.51554787     0.16500
H786        H  0.89258712  0.14642361  0.45902793     0.19100
C787        C  0.87653649  0.14675019  0.04559163    -0.28500
H788        H  0.88327930  0.14447762  0.07283527     0.19100
H789        H  0.89728382  0.29165000  0.07564055     0.19100
H790        H  0.75751537  0.13865254  0.45368817     0.19200
H791        H  0.89166303  0.28382320  0.46454946     0.19100
C792        C  0.85799385  0.19098996  0.30217367     0.33000
C793        C  0.85152987  0.18686770  0.23015272     0.33000
C794        C  0.81681120  0.16584596  0.28582772    -0.03200
C795        C  0.87734814  0.23476687  0.28599863    -0.04000
C796        C  0.87544053  0.16970180  0.28223230    -0.03800
C797        C  0.81336366  0.16367769  0.24883159    -0.03200
C798        C  0.87399628  0.23252894  0.24897920    -0.04000
C799        C  0.87215680  0.16757109  0.24514622    -0.03900
C800        C  0.77493368  0.14408703  0.23949234    -0.29200
N801        N  0.75552756  0.13461991  0.26988266     0.17300
C802        C  0.78057533  0.14764408  0.29834886    -0.29200
H803        H  0.77312220  0.14542077  0.32595604     0.19200
C804        C  0.89354911  0.27429592  0.23900037    -0.28200
N805        N  0.90848546  0.30143044  0.26901021     0.16000
C806        C  0.89893155  0.27801152  0.29793380    -0.28200
C807        C  0.89131859  0.15008368  0.23194625    -0.28500
N808        N  0.90596632  0.14187852  0.26009011     0.16500
H809        H  0.89472126  0.14418026  0.20418625     0.19100
C810        C  0.89653721  0.15357518  0.29087550    -0.28500
H811        H  0.90478396  0.15092220  0.31740851     0.19100
H812        H  0.90726671  0.29147232  0.32532880     0.19100
H813        H  0.76221952  0.13852831  0.21287261     0.19200
H814        H  0.89690056  0.28429894  0.21211427     0.19100
C815        C  0.63042796  0.07868138  0.02308729     0.79500
Tb816      Tb  0.96308626  0.01637833  0.02632189     1.80700
O817        O  0.61883858  0.06254396  0.05258090    -0.48600
O818        O  0.55978789  0.47076398  0.05780671    -0.56000
C819        C  0.55111020  0.10107667  0.03276340     0.95300
O820        O  0.94446293  0.06034376  0.55151739    -0.55500
Tb821      Tb  0.55316101  0.01827988  0.03507283     1.78100
O822        O  0.90299903  0.45774175  0.00917858    -0.56000
O823        O  0.99215777  0.45199347  0.99913089    -0.74800
O824        O  0.55797164  0.08153369  0.05446649    -0.74200
O825        O  0.53115152  0.01927024  0.46738668    -0.59400
C826        C  0.96579781  0.43242472  0.02064566     0.94900
O827        O  0.99088515  0.03666678  0.08404284    -0.71400
C828        C  0.88431366  0.95658653  0.03106416     0.78300
C829        C  0.57186940  0.45876201  0.03247606     0.79300
O830        O  0.60390452  0.05962556  0.49100902    -0.56600
O831        O  0.57264909  0.47446232  0.00362101    -0.48600
O832        O  0.97961484  0.01669610  0.47120317    -0.74600
O833        O  0.53063303  0.01930971  0.09127577    -0.58600
C834        C  0.50240433  0.01976090  0.10255841     0.93100
C835        C  0.49848489  0.00431302  0.45137955     0.94300
C836        C  0.94969351  0.07887711  0.52318510     0.78600
O837        O  0.90599639  0.98263890  0.05674277    -0.48000
O838        O  0.93020582  0.54154524  0.49354619    -0.49100
O839        O  0.95849916  0.45307827  0.04293111    -0.62000
O840        O  0.52319355  0.08052168  0.00997173    -0.63100
C841        C  0.64054872  0.07171062  0.27461776     0.79500
Tb842      Tb  0.97475476  0.01819902  0.27500170     1.80700
O843        O  0.62283053  0.07152165  0.30151115    -0.48600
O844        O  0.58758994  0.48937373  0.31161631    -0.56000
C845        C  0.55601968  0.09686652  0.27840949     0.95300
O846        O  0.95421548  0.06255307  0.29373400    -0.55500
Tb847      Tb  0.56085776  0.01513884  0.27791307     1.78100
O848        O  0.90486161  0.45449708  0.26326122    -0.56000
O849        O  0.49794472  0.45327593  0.29085731    -0.74800
O850        O  0.56467865  0.07553300  0.25860468    -0.74200
O851        O  0.53542547  0.00177770  0.21940223    -0.59400
C852        C  0.96934034  0.43172462  0.27094989     0.94900
O853        O  0.99106566  0.01148428  0.33382824    -0.71400
C854        C  0.89576803  0.96094591  0.28458870     0.78300
C855        C  0.57830265  0.46002716  0.28727134     0.79300
O856        O  0.61891802  0.04519185  0.24915403    -0.56600
O857        O  0.55776085  0.45848138  0.26185582    -0.48600
O858        O  0.99898622  0.02424432  0.21685534    -0.74600
O859        O  0.55291126  0.03453713  0.33561063    -0.58600
C860        C  0.52240206  0.02111753  0.35218384     0.93100
C861        C  0.51339911  0.00917684  0.20299729     0.94300
C862        C  0.95552169  0.07710430  0.26420518     0.78600
O863        O  0.92093806  0.97661407  0.30985138    -0.48000
O864        O  0.96201106  0.56451810  0.25103689    -0.49100
O865        O  0.96090411  0.45130751  0.29320050    -0.62000
O866        O  0.52843215  0.07796145  0.29883880    -0.63100
C867        C  0.66875184  0.34163768  0.99960558     0.33000
C868        C  0.67198843  0.34569940  0.07170017     0.33000
C869        C  0.65120556  0.36369151  0.01796165    -0.03200
C870        C  0.64799346  0.29777102  0.01586850    -0.04000
C871        C  0.70923047  0.36604865  0.01746306    -0.03800
C872        C  0.65275528  0.36576086  0.05506913    -0.03200
C873        C  0.64976797  0.30007052  0.05294977    -0.04000
C874        C  0.71097596  0.36808019  0.05453878    -0.03900
C875        C  0.63382227  0.38421961  0.06661325    -0.29200
N876        N  0.62110536  0.39316383  0.03743008     0.17300
C877        C  0.63151309  0.38093710  0.00762240    -0.29200
H878        H  0.62483672  0.38394850  0.98057034     0.19200
C879        C  0.63032504  0.25844457  0.06310565    -0.28200
N880        N  0.61691527  0.23123647  0.03316016     0.16000
C881        C  0.62731049  0.25448527  0.00406321    -0.28200
C882        C  0.74876095  0.38632794  0.06548901    -0.28500
N883        N  0.76948041  0.39531763  0.03599699     0.16500
H884        H  0.76014218  0.39137312  0.09262274     0.19100
C885        C  0.74590186  0.38320932  0.00650655    -0.28500
H886        H  0.75461031  0.38537960  0.97932504     0.19100
H887        H  0.61009011  0.23654292  0.47580899     0.19100
H888        H  0.62926711  0.39027035  0.09394502     0.19200
H889        H  0.62614778  0.24857056  0.09006773     0.19100
C890        C  0.67205087  0.33927893  0.24962172     0.33000
C891        C  0.67194192  0.34011718  0.32164391     0.33000
C892        C  0.65473515  0.36162877  0.26781528    -0.03200
C893        C  0.64955155  0.29457993  0.26454122    -0.04000
C894        C  0.71169073  0.36184949  0.26892203    -0.03800
C895        C  0.65460482  0.36200866  0.30480182    -0.03200
C896        C  0.64954496  0.29516578  0.30158292    -0.04000
C897        C  0.71179255  0.36229945  0.30598630    -0.03900
C898        C  0.63614816  0.38099975  0.31620225    -0.29200
N899        N  0.62534688  0.39195718  0.28703469     0.17300
C900        C  0.63647675  0.38048089  0.25734032    -0.29200
H901        H  0.63123729  0.38506148  0.23030697     0.19200
C902        C  0.62915827  0.25290970  0.31036545    -0.28200
N903        N  0.61696630  0.22704524  0.27966315     0.16000
C904        C  0.62909464  0.25176039  0.25142245    -0.28200
C905        C  0.74922284  0.38024545  0.31816992    -0.28500
N906        N  0.77123263  0.39044698  0.28943461     0.16500
H907        H  0.75956280  0.38471802  0.34560876     0.19100
C908        C  0.74884069  0.37948633  0.25926755    -0.28500
H909        H  0.75876502  0.38323323  0.23244462     0.19100
H910        H  0.62378409  0.23948737  0.22371362     0.18300
H911        H  0.63059697  0.38606218  0.34342440     0.19200
H912        H  0.62392915  0.24172968  0.33692674     0.19100
C913        C  0.66106621  0.33545413  0.46076799    -0.15500
C914        C  0.66309153  0.33631422  0.42898282     0.08600
C915        C  0.66749363  0.33835849  0.39205878     0.10400
C916        C  0.67080302  0.33984719  0.36041509    -0.16400
C917        C  0.67230347  0.33953108  0.21087598    -0.15500
C918        C  0.67292458  0.34176761  0.17918703     0.08600
C919        C  0.67352687  0.34504534  0.14223762     0.10400
C920        C  0.67339002  0.34674613  0.11050543    -0.16400
C921        C  0.57761670  0.14290591  0.27761487    -0.10300
C922        C  0.59578240  0.18177276  0.27785525    -0.11800
C923        C  0.81109732  0.41014214  0.29037289    -0.10300
C924        C  0.84560480  0.42916546  0.29008974    -0.11800
C925        C  0.59182966  0.43266237  0.28763578    -0.10300
C926        C  0.60648813  0.41291913  0.28749842    -0.11800
C927        C  0.59498022  0.18603849  0.03283257    -0.10300
C928        C  0.57554412  0.14721914  0.03329687    -0.11800
C929        C  0.84342509  0.43194590  0.03534406    -0.10300
C930        C  0.80907687  0.41388348  0.03579805    -0.11800
C931        C  0.58586875  0.43205328  0.03632353    -0.10300
C932        C  0.60128074  0.41311762  0.03765876    -0.11800
C933        C  0.49509227  0.00326852  0.41198289    -0.13400
C934        C  0.52578031  0.02214196  0.39157939    -0.28600
H935        H  0.54471398  0.51428982  0.40645968     0.15600
H936        H  0.55455672  0.03809826  0.40406107     0.16200
C937        C  0.51547278  0.00889568  0.16367905    -0.13400
C938        C  0.49681084  0.01906975  0.14159128    -0.28600
H939        H  0.53460384  0.00088836  0.15245181     0.15600
H940        H  0.04660144  0.51967573  0.14835236     0.16200
C941        C  0.94189923  0.10384379  0.25884079    -0.10300
C942        C  0.92628289  0.12255591  0.25813375    -0.11800
C943        C  0.94838962  0.38556823  0.27003798    -0.10300
C944        C  0.93019263  0.34668846  0.26977052    -0.11800
C945        C  0.71592468  0.11555405  0.27182470    -0.10300
C946        C  0.68164693  0.09758914  0.27352496    -0.11800
C947        C  0.93590159  0.10555390  0.51779917    -0.10300
C948        C  0.91948122  0.12334624  0.51593084    -0.11800
C949        C  0.94427112  0.38617663  0.02030207    -0.10300
C950        C  0.92591704  0.34724100  0.02011044    -0.11800
C951        C  0.67058400  0.10552422  0.01624231    -0.10300
C952        C  0.70485788  0.12400971  0.01365534    -0.11800
C953        C  0.84716119  0.18609079  0.44075659    -0.15500
C954        C  0.85184152  0.18844797  0.40935057     0.08600
C955        C  0.85769953  0.19144087  0.37270866     0.10400
C956        C  0.86025852  0.19261154  0.34100412    -0.16400
C957        C  0.84475630  0.19235483  0.09111454    -0.15500
C958        C  0.84550493  0.19068046  0.12284354     0.08600
C959        C  0.84674064  0.18752568  0.15973741     0.10400
C960        C  0.84840001  0.18579863  0.19139400    -0.16400
C961        C  0.84338803  0.18545508  0.55131171     0.33000
C962        C  0.84260920  0.18746348  0.98016871     0.33000
C963        C  0.80384095  0.16063105  0.53121047    -0.03200
C964        C  0.86423861  0.23025959  0.53655455    -0.04000
C965        C  0.86331853  0.16573128  0.53371854    -0.03800
C966        C  0.80346394  0.16891769  0.99650579    -0.03200
C967        C  0.86785362  0.23300592  0.99909885    -0.04000
C968        C  0.85757875  0.16333377  0.99742286    -0.03900
C969        C  0.76596327  0.15145804  0.98473157    -0.29200
N970        N  0.74465976  0.14320204  0.01380519     0.17300
C971        C  0.76629379  0.14245457  0.54004361    -0.29200
H972        H  0.75592167  0.13924642  0.56666978     0.19200
C973        C  0.89002081  0.27485380  0.98919483    -0.28200
N974        N  0.89669206  0.29808832  0.52179666     0.16000
C975        C  0.88418181  0.27304167  0.54986246    -0.28200
C976        C  0.87574071  0.14373706  0.98663564    -0.28500
N977        N  0.88696692  0.13386077  0.01622529     0.16500
H978        H  0.88176892  0.13866351  0.95959337     0.19100
C979        C  0.88442980  0.15040144  0.54480238    -0.28500
H980        H  0.89019079  0.14691360  0.57202129     0.19100
H981        H  0.88958582  0.28509110  0.57762339     0.19100
H982        H  0.75503530  0.14543251  0.95732800     0.19200
H983        H  0.89485788  0.28497234  0.96230090     0.19100
C984        C  0.84876569  0.18995976  0.80216341     0.33000
C985        C  0.84666937  0.18515637  0.73002793     0.33000
C986        C  0.80850335  0.16466427  0.78374393    -0.03200
C987        C  0.86920820  0.23352151  0.78559985    -0.04000
C988        C  0.86736615  0.16864425  0.78477830    -0.03800
C989        C  0.80722567  0.16216046  0.74667005    -0.03200
C990        C  0.86814187  0.23109128  0.74850228    -0.04000
C991        C  0.86640102  0.16607082  0.74767066    -0.03900
C992        C  0.76923779  0.14282931  0.73525648    -0.29200
N993        N  0.74805311  0.13378693  0.76452613     0.17300
C994        C  0.77157240  0.14691411  0.79421137    -0.29200
H995        H  0.76261946  0.14506299  0.82130267     0.19200
C996        C  0.88872484  0.27294640  0.73844297    -0.28200
N997        N  0.90199300  0.30012648  0.76850029     0.16000
C998        C  0.89042369  0.27672317  0.79747322    -0.28200
C999        C  0.88673689  0.14884261  0.73725979    -0.28500
N1000       N  0.89972623  0.14124872  0.76711368     0.16500
H1001       H  0.89207858  0.14277293  0.71022903     0.19100
C1002       C  0.88817355  0.15317314  0.79622922    -0.28500
H1003       H  0.89482077  0.15116300  0.82359037     0.19100
H1004       H  0.89748637  0.29019006  0.82491473     0.19100
H1005       H  0.75807566  0.13716896  0.70798526     0.19200
H1006       H  0.89421942  0.28296527  0.71152541     0.19100
C1007       C  0.62958721  0.07060880  0.51496785     0.79500
Tb1008     Tb  0.96831619  0.01944970  0.53271928     1.80700
O1009       O  0.61624132  0.05530209  0.54421737    -0.48600
O1010       O  0.58585419  0.49483240  0.56471459    -0.56000
C1011       C  0.54648754  0.09531957  0.52817236     0.95300
O1012       O  0.95524444  0.07084709  0.04848315    -0.55500
Tb1013     Tb  0.55053949  0.01376872  0.52538132     1.78100
O1014       O  0.89613052  0.45443347  0.49959164    -0.56000
O1015       O  0.99087071  0.44747994  0.50628638    -0.74800
O1016       O  0.55771187  0.07754471  0.54728306    -0.74200
O1017       O  0.53781311  0.01502270  0.97389034    -0.59400
C1018       C  0.96175997  0.42890621  0.52502535     0.94900
O1019       O  0.99233995  0.02237628  0.58975893    -0.71400
C1020       C  0.88884095  0.96171070  0.53732707     0.78300
C1021       C  0.57702124  0.46466405  0.54140319     0.79300
O1022       O  0.60371156  0.06682434  0.99988591    -0.56600
O1023       O  0.55571247  0.46116869  0.51577093    -0.48600
O1024       O  0.97339204  0.99865789  0.96905434    -0.74600
O1025       O  0.52963832  0.01081201  0.58459940    -0.58600
C1026       C  0.50770571  0.01971067  0.60013059     0.93100
C1027       C  0.51359554  0.01439909  0.95278136     0.94300
C1028       C  0.93968437  0.07205586  0.02024817     0.78600
O1029       O  0.91029215  0.99121818  0.56123193    -0.48000
O1030       O  0.96195235  0.56780375  0.99948458    -0.49100
O1031       O  0.95303509  0.45067232  0.54417599    -0.62000
O1032       O  0.51702176  0.07275367  0.50720157    -0.63100
C1033       C  0.63351025  0.07105441  0.77357935     0.79500
Tb1034     Tb  0.97063948  0.01919965  0.78493503     1.80700
O1035       O  0.62080881  0.05371189  0.80244175    -0.48600
O1036       O  0.58998777  0.48767815  0.80573976    -0.56000
C1037       C  0.55309749  0.09671797  0.78353612     0.95300
O1038       O  0.94663798  0.05985251  0.80482162    -0.55500
Tb1039     Tb  0.55516078  0.01281070  0.78412756     1.78100
O1040       O  0.90422078  0.46950278  0.75470370    -0.56000
O1041       O  0.50769244  0.45815549  0.79796933    -0.74800
O1042       O  0.56098627  0.07666648  0.80369741    -0.74200
O1043       O  0.54194579  0.01060636  0.72231031    -0.59400
C1044       C  0.96999434  0.43064778  0.77163268     0.94900
O1045       O  0.99581661  0.02183834  0.84128847    -0.71400
C1046       C  0.89163848  0.95936898  0.78923306     0.78300
C1047       C  0.58339281  0.46104889  0.77992468     0.79300
O1048       O  0.60747064  0.06143596  0.75033157    -0.56600
O1049       O  0.56574114  0.46248007  0.75339512    -0.48600
O1050       O  0.98316177  0.01796003  0.72363283    -0.74600
O1051       O  0.53380092  0.01679856  0.84036391    -0.58600
C1052       C  0.50459474  0.01582295  0.85062638     0.93100
C1053       C  0.51828143  0.01119932  0.70131099     0.94300
C1054       C  0.95040350  0.07750574  0.77622666     0.78600
O1055       O  0.91249782  0.98858986  0.81355552    -0.48000
O1056       O  0.96175370  0.56019164  0.74028287    -0.49100
O1057       O  0.96086934  0.45020773  0.75233712    -0.62000
O1058       O  0.52436165  0.07688509  0.76144858    -0.63100
C1059       C  0.66282814  0.33664027  0.49963240     0.33000
C1060       C  0.66825431  0.33982345  0.57170279     0.33000
C1061       C  0.64938411  0.36225428  0.51948849    -0.03200
C1062       C  0.63954521  0.29267261  0.51566321    -0.04000
C1063       C  0.70329889  0.35709581  0.51622303    -0.03800
C1064       C  0.65208380  0.36393766  0.55659837    -0.03200
C1065       C  0.64234592  0.29438159  0.55270837    -0.04000
C1066       C  0.70622596  0.35872275  0.55320903    -0.03900
C1067       C  0.63674311  0.38596156  0.56954313    -0.29200
N1068       N  0.62502320  0.39730986  0.54122282     0.17300
C1069       C  0.63256949  0.38318907  0.51059299    -0.29200
H1070       H  0.62550834  0.38702586  0.48397543     0.19200
C1071       C  0.62167332  0.25238082  0.56229518    -0.28200
N1072       N  0.60659988  0.22568033  0.53203975     0.16000
C1073       C  0.61720744  0.24958006  0.50335673    -0.28200
C1074       C  0.74414024  0.37594530  0.56286027    -0.28500
N1075       N  0.76365605  0.38447747  0.53260375     0.16500
H1076       H  0.75656041  0.38153642  0.58962774     0.19100
C1077       C  0.73928479  0.37336464  0.50398136    -0.28500
H1078       H  0.74717710  0.37656297  0.47649306     0.19100
H1079       H  0.62031289  0.24089994  0.97665331     0.19100
H1080       H  0.63352943  0.39240099  0.59722473     0.19200
H1081       H  0.61868040  0.24194027  0.58900027     0.19100
C1082       C  0.67603554  0.33725086  0.74974879     0.33000
C1083       C  0.67664633  0.34275851  0.82180567     0.33000
C1084       C  0.65857044  0.36034960  0.76622536    -0.03200
C1085       C  0.65396664  0.29368825  0.76666597    -0.04000
C1086       C  0.71594191  0.36135963  0.76893257    -0.03800
C1087       C  0.65883782  0.36318277  0.80324845    -0.03200
C1088       C  0.65436575  0.29671633  0.80373152    -0.04000
C1089       C  0.71634903  0.36419988  0.80603745    -0.03900
C1090       C  0.64075874  0.38316713  0.81303726    -0.29200
N1091       N  0.62969438  0.39222841  0.78285289     0.17300
C1092       C  0.64036878  0.37863862  0.75410062    -0.29200
H1093       H  0.63500295  0.38158064  0.72660004     0.19200
C1094       C  0.63360594  0.25523034  0.81448926    -0.28200
N1095       N  0.62077738  0.22737661  0.78492133     0.16000
C1096       C  0.63286778  0.25014984  0.75551616    -0.28200
C1097       C  0.75393952  0.38345369  0.81844611    -0.28500
N1098       N  0.77582669  0.39205916  0.78978739     0.16500
H1099       H  0.76445192  0.38978454  0.84601660     0.19100
C1100       C  0.75315581  0.37885602  0.75946646    -0.28500
H1101       H  0.76293618  0.38091925  0.73269183     0.19100
H1102       H  0.62665702  0.23606548  0.72828546     0.18300
H1103       H  0.63576696  0.39031298  0.83988841     0.19200
H1104       H  0.62810886  0.24591854  0.84160496     0.19100
C1105       C  0.66779095  0.34015684  0.96081477    -0.15500
C1106       C  0.66964610  0.34130967  0.92909120     0.08600
C1107       C  0.67337155  0.34368612  0.89220899     0.10400
C1108       C  0.67604511  0.34469165  0.86054465    -0.16400
C1109       C  0.67570022  0.33524525  0.71087782    -0.15500
C1110       C  0.67498718  0.33642098  0.67908094     0.08600
C1111       C  0.67333344  0.33908736  0.64212963     0.10400
C1112       C  0.67123526  0.34060554  0.61047206    -0.16400
C1113       C  0.57766980  0.14310799  0.78501413    -0.10300
C1114       C  0.59781168  0.18207363  0.78496582    -0.11800
C1115       C  0.81571460  0.41168120  0.79082355    -0.10300
C1116       C  0.85013128  0.43021865  0.78953510    -0.11800
C1117       C  0.59662997  0.43336219  0.78036948    -0.10300
C1118       C  0.61110074  0.41345037  0.78149659    -0.11800
C1119       C  0.58552460  0.18042306  0.53065391    -0.10300
C1120       C  0.56772629  0.14152588  0.52966021    -0.11800
C1121       C  0.83743968  0.42229315  0.52886395    -0.10300
C1122       C  0.80318495  0.40351866  0.53086410    -0.11800
C1123       C  0.59183969  0.43853486  0.54297745    -0.10300
C1124       C  0.60681235  0.41906811  0.54290998    -0.11800
C1125       C  0.52000399  0.01410641  0.91412756    -0.13400
C1126       C  0.49813861  0.01646837  0.88927327    -0.28600
H1127       H  0.46805838  0.49363974  0.89973120     0.15600
H1128       H  0.47431431  0.01818703  0.89737664     0.16200
C1129       C  0.52453365  0.01197278  0.66233936    -0.13400
C1130       C  0.50536393  0.02073491  0.63950890    -0.28600
H1131       H  0.54511579  0.00555850  0.65241594     0.15600
H1132       H  0.98500446  0.53433108  0.65129319     0.16200
C1133       C  0.93619474  0.10386441  0.77098764    -0.10300
C1134       C  0.92036131  0.12224223  0.76825077    -0.11800
C1135       C  0.94583681  0.38439098  0.77049462    -0.10300
C1136       C  0.92544217  0.34542709  0.76952218    -0.11800
C1137       C  0.70823781  0.11477470  0.76478025    -0.10300
C1138       C  0.67397264  0.09687342  0.76738366    -0.11800
C1139       C  0.92404057  0.09722105  0.01796475    -0.10300
C1140       C  0.90757340  0.11492325  0.01673635    -0.11800
C1141       C  0.93849618  0.38256726  0.52479989    -0.10300
C1142       C  0.91903933  0.34352246  0.52395431    -0.11800
C1143       C  0.67022249  0.09562191  0.50938260    -0.10300
C1144       C  0.70457518  0.11296699  0.50805579    -0.11800
C1145       C  0.84269200  0.18654295  0.94139114    -0.15500
C1146       C  0.84466216  0.18817454  0.90968950     0.08600
C1147       C  0.84766677  0.19088376  0.87274623     0.10400
C1148       C  0.84930627  0.19191146  0.84098940    -0.16400
C1149       C  0.84285806  0.18527803  0.59012496    -0.15500
C1150       C  0.84325251  0.18428124  0.62197075     0.08600
C1151       C  0.84440573  0.18322585  0.65919755     0.10400
C1152       C  0.84555003  0.18327058  0.69111295    -0.16400
C1153       C  0.84481196  0.68930776  0.05121546     0.33000
C1154       C  0.84329121  0.69004635  0.47959214     0.33000
C1155       C  0.80526044  0.66629390  0.03150204    -0.03200
C1156       C  0.86704426  0.73418816  0.03662538    -0.04000
C1157       C  0.86292446  0.66776774  0.03317321    -0.03800
C1158       C  0.80453239  0.67369741  0.49599590    -0.03200
C1159       C  0.87011809  0.73550099  0.49827757    -0.04000
C1160       C  0.85636157  0.66415334  0.49693891    -0.03900
C1161       C  0.76709996  0.65666327  0.48421811    -0.29200
N1162       N  0.74586176  0.64899686  0.51327908     0.17300
C1163       C  0.76794485  0.64864419  0.04076482    -0.29200
H1164       H  0.75783470  0.64513195  0.06751503     0.19200
C1165       C  0.89332594  0.77713447  0.48806185    -0.28200
N1166       N  0.90025842  0.80209776  0.02226215     0.16000
C1167       C  0.88759271  0.77686096  0.05016972    -0.28200
C1168       C  0.87206501  0.64178717  0.48615092    -0.28500
N1169       N  0.88203148  0.63058980  0.51574024     0.16500
H1170       H  0.87732959  0.63568208  0.45908376     0.19100
C1171       C  0.88241723  0.65042330  0.04389714    -0.28500
H1172       H  0.88796731  0.64642693  0.07102226     0.19100
H1173       H  0.89292078  0.78870502  0.07798047     0.19100
H1174       H  0.75604653  0.64984201  0.45679524     0.19200
H1175       H  0.89810681  0.78695439  0.46107733     0.19100
C1176       C  0.85032018  0.69276638  0.30178683     0.33000
C1177       C  0.84768341  0.68820523  0.22969456     0.33000
C1178       C  0.81004436  0.66943783  0.28367462    -0.03200
C1179       C  0.87228503  0.73645306  0.28536317    -0.04000
C1180       C  0.86703815  0.66952566  0.28398473    -0.03800
C1181       C  0.80850264  0.66706810  0.24661073    -0.03200
C1182       C  0.87093949  0.73416150  0.24827605    -0.04000
C1183       C  0.86577520  0.66707111  0.24688287    -0.03900
C1184       C  0.77070961  0.64924510  0.23548069    -0.29200
N1185       N  0.74989665  0.64099966  0.26492284     0.17300
C1186       C  0.77343848  0.65308104  0.29443896    -0.29200
H1187       H  0.76471764  0.65123705  0.32161712     0.19200
C1188       C  0.89272607  0.77608224  0.23834171    -0.28200
N1189       N  0.90701449  0.80316315  0.26847688     0.16000
C1190       C  0.89487765  0.77961469  0.29736291    -0.28200
C1191       C  0.88480539  0.64838974  0.23602504    -0.28500
N1192       N  0.89731551  0.63979705  0.26561792     0.16500
H1193       H  0.88978055  0.64222966  0.20887530     0.19100
C1194       C  0.88675012  0.65254782  0.29499589    -0.28500
H1195       H  0.89351575  0.65029064  0.32224305     0.19100
H1196       H  0.90224738  0.79293910  0.32483971     0.19100
H1197       H  0.75942429  0.64384161  0.20828681     0.19200
H1198       H  0.89810597  0.78618536  0.21144776     0.19100
C1199       C  0.63090778  0.57611063  0.01623004     0.79500
Tb1200     Tb  0.96383461  0.51714176  0.03210850     1.80700
O1201       O  0.61739155  0.55866349  0.04477179    -0.48600
O1202       O  0.58478983  0.99207234  0.06419507    -0.56000
C1203       C  0.54802124  0.59930334  0.03049990     0.95300
O1204       O  0.94833166  0.56479146  0.54737791    -0.55500
Tb1205     Tb  0.55177823  0.51760408  0.02556871     1.78100
O1206       O  0.90155475  0.95904957  0.00312358    -0.56000
O1207       O  0.99448172  0.95084665  0.00743734    -0.74800
O1208       O  0.55874346  0.58066117  0.04908092    -0.74200
O1209       O  0.53858989  0.51694805  0.47438075    -0.59400
C1210       C  0.96567295  0.93282271  0.02654069     0.94900
O1211       O  0.98753230  0.52027892  0.08930981    -0.71400
C1212       C  0.88450030  0.45870374  0.03495250     0.78300
C1213       C  0.57720465  0.96294590  0.04028445     0.79300
O1214       O  0.60421514  0.56977450  0.49997909    -0.56600
O1215       O  0.55634586  0.95979691  0.01437661    -0.48600
O1216       O  0.96893773  0.49470567  0.46750548    -0.74600
O1217       O  0.53021065  0.51323359  0.08459857    -0.58600
C1218       C  0.50890007  0.52292153  0.10032787     0.93100
C1219       C  0.51463288  0.51676495  0.45324275     0.94300
C1220       C  0.93252266  0.56602098  0.51932328     0.78600
O1221       O  0.90523214  0.48735449  0.05967106    -0.48000
O1222       O  0.96578796  0.06961811  0.49977312    -0.49100
O1223       O  0.95773723  0.95511876  0.04600381    -0.62000
O1224       O  0.51843492  0.57765874  0.00955636    -0.63100
C1225       C  0.63565771  0.57853906  0.27437559     0.79500
Tb1226     Tb  0.96592345  0.51546933  0.28420929     1.80700
O1227       O  0.62311322  0.55967944  0.30269676    -0.48600
O1228       O  0.58556889  0.98198966  0.30744529    -0.56000
C1229       C  0.55515550  0.60146117  0.28431713     0.95300
O1230       O  0.94190073  0.55635029  0.30321751    -0.55500
Tb1231     Tb  0.55761381  0.51833341  0.28412386     1.78100
O1232       O  0.90960516  0.97204335  0.25459873    -0.56000
O1233       O  0.50419108  0.95296367  0.29568320    -0.74800
O1234       O  0.56197908  0.58097077  0.30497953    -0.74200
O1235       O  0.54497744  0.51668088  0.22237841    -0.59400
C1236       C  0.97516915  0.93383379  0.27216453     0.94900
O1237       O  0.99186613  0.51805534  0.34020250    -0.71400
C1238       C  0.88669360  0.45652546  0.28888338     0.78300
C1239       C  0.57958208  0.95531017  0.28190378     0.79300
O1240       O  0.60956692  0.56951612  0.25141551    -0.56600
O1241       O  0.56303055  0.95694135  0.25454243    -0.48600
O1242       O  0.97888501  0.51501092  0.22307122    -0.74600
O1243       O  0.53513416  0.51910649  0.34062760    -0.58600
C1244       C  0.50623920  0.51882080  0.35091822     0.93100
C1245       C  0.52018275  0.51497376  0.20130190     0.94300
C1246       C  0.94630950  0.57415989  0.27457431     0.78600
O1247       O  0.90773203  0.48658792  0.31259483    -0.48000
O1248       O  0.96775580  0.06396541  0.23993782    -0.49100
O1249       O  0.96535328  0.95315794  0.25335339    -0.62000
O1250       O  0.52705646  0.58185027  0.26156694    -0.63100
C1251       C  0.66881023  0.84007896  0.00126922     0.33000
C1252       C  0.67331392  0.84424659  0.07337896     0.33000
C1253       C  0.65486015  0.86568575  0.02024137    -0.03200
C1254       C  0.64551085  0.79639659  0.01764624    -0.04000
C1255       C  0.70913574  0.86093208  0.01839467    -0.03800
C1256       C  0.65711381  0.86785630  0.05737494    -0.03200
C1257       C  0.64781717  0.79856384  0.05472309    -0.04000
C1258       C  0.71158181  0.86312655  0.05543741    -0.03900
C1259       C  0.64056267  0.88882398  0.06954087    -0.29200
N1260       N  0.62853732  0.89912239  0.04073874     0.17300
C1261       C  0.63703719  0.88528961  0.01054342    -0.29200
H1262       H  0.62970786  0.88812859  0.98368502     0.19200
C1263       C  0.62645579  0.75671337  0.06466506    -0.28200
N1264       N  0.61149521  0.72972841  0.03455255     0.16000
C1265       C  0.62282145  0.75325468  0.00564763    -0.28200
C1266       C  0.74945808  0.88096163  0.06571357    -0.28500
N1267       N  0.76943489  0.88925429  0.03578010     0.16500
H1268       H  0.76158401  0.88730348  0.09270282     0.19100
C1269       C  0.74537496  0.87735135  0.00673243    -0.28500
H1270       H  0.75368547  0.88032806  0.97937391     0.19100
H1271       H  0.62578092  0.74449315  0.47804854     0.19100
H1272       H  0.63649461  0.89495798  0.09702364     0.19200
H1273       H  0.62259015  0.74655345  0.09152789     0.19100
C1274       C  0.68055858  0.84208693  0.25144333     0.33000
C1275       C  0.68196818  0.84712656  0.32353682     0.33000
C1276       C  0.66242530  0.86408467  0.26849976    -0.03200
C1277       C  0.65944504  0.79843305  0.26817374    -0.04000
C1278       C  0.72071154  0.86698121  0.27020384    -0.03800
C1279       C  0.66304618  0.86665694  0.30553736    -0.03200
C1280       C  0.66025126  0.80121511  0.30526024    -0.04000
C1281       C  0.72154665  0.86959309  0.30733268    -0.03900
C1282       C  0.64280777  0.88391505  0.31577621    -0.29200
N1283       N  0.63019922  0.89161331  0.28582002     0.17300
C1284       C  0.64194026  0.87982749  0.25680487    -0.29200
H1285       H  0.63537098  0.88179321  0.22940661     0.19200
C1286       C  0.63906109  0.75964080  0.31579473    -0.28200
N1287       N  0.62563090  0.73198516  0.28607657     0.16000
C1288       C  0.63770967  0.75496088  0.25678754    -0.28200
C1289       C  0.75932708  0.88911239  0.31927365    -0.28500
N1290       N  0.78090309  0.89810661  0.29033044     0.16500
H1291       H  0.77014159  0.89509021  0.34670992     0.19100
C1292       C  0.75784126  0.88485355  0.26027303    -0.28500
H1293       H  0.76726226  0.88686245  0.23335539     0.19100
H1294       H  0.63059880  0.74106082  0.22947334     0.18300
H1295       H  0.63703196  0.88966329  0.34273031     0.19200
H1296       H  0.63321086  0.75013705  0.34284060     0.19100
C1297       C  0.67295891  0.84376955  0.46254604    -0.15500
C1298       C  0.67517318  0.84511091  0.43084748     0.08600
C1299       C  0.67909410  0.84765079  0.39397930     0.10400
C1300       C  0.68169861  0.84879292  0.36230564    -0.16400
C1301       C  0.67969250  0.84037781  0.21259413    -0.15500
C1302       C  0.67878882  0.84179920  0.18085164     0.08600
C1303       C  0.67735182  0.84444898  0.14391086     0.10400
C1304       C  0.67570346  0.84561504  0.11218658    -0.16400
C1305       C  0.58033930  0.64779763  0.28581304    -0.10300
C1306       C  0.60142701  0.68671643  0.28588532    -0.11800
C1307       C  0.82073934  0.91737051  0.29090036    -0.10300
C1308       C  0.85509796  0.93541712  0.28943003    -0.11800
C1309       C  0.59310765  0.92806018  0.28330539    -0.10300
C1310       C  0.60913587  0.90992656  0.28475273    -0.11800
C1311       C  0.58915858  0.68446645  0.03345436    -0.10300
C1312       C  0.57023744  0.64553032  0.03236976    -0.11800
C1313       C  0.84350261  0.92870246  0.03307257    -0.10300
C1314       C  0.80915967  0.90927291  0.03473012    -0.11800
C1315       C  0.59297751  0.93772526  0.04156920    -0.10300
C1316       C  0.60898427  0.91938627  0.04170793    -0.11800
C1317       C  0.52098118  0.51619494  0.41453602    -0.13400
C1318       C  0.49934685  0.51880613  0.38956462    -0.28600
H1319       H  0.46631244  0.98725921  0.39949418     0.15600
H1320       H  0.47559973  0.52070726  0.39759809     0.16200
C1321       C  0.52608490  0.51527521  0.16233278    -0.13400
C1322       C  0.50646374  0.52352051  0.13963220    -0.28600
H1323       H  0.54700746  0.50942920  0.15236796     0.15600
H1324       H  0.99295730  0.04116811  0.15227162     0.16200
C1325       C  0.93246286  0.60082247  0.26894399    -0.10300
C1326       C  0.91713218  0.61978650  0.26633126    -0.11800
C1327       C  0.95140778  0.88749542  0.27084764    -0.10300
C1328       C  0.93096545  0.84848874  0.26966179    -0.11800
C1329       C  0.71025753  0.62278302  0.26544693    -0.10300
C1330       C  0.67605942  0.60505395  0.26821221    -0.11800
C1331       C  0.91665942  0.59105750  0.51736251    -0.10300
C1332       C  0.90096549  0.60967189  0.51624647    -0.11800
C1333       C  0.94189378  0.88653658  0.02618335    -0.10300
C1334       C  0.92246678  0.84749861  0.02481857    -0.11800
C1335       C  0.67161692  0.60190864  0.01092023    -0.10300
C1336       C  0.70599458  0.61952451  0.00942734    -0.11800
C1337       C  0.84346310  0.68893291  0.44083881    -0.15500
C1338       C  0.84589690  0.69073720  0.40919300     0.08600
C1339       C  0.84937824  0.69362157  0.37232300     0.10400
C1340       C  0.85111562  0.69466474  0.34058852    -0.16400
C1341       C  0.84449909  0.68901879  0.08997802    -0.15500
C1342       C  0.84472473  0.68782876  0.12177915     0.08600
C1343       C  0.84544785  0.68651601  0.15894885     0.10400
C1344       C  0.84637136  0.68641880  0.19083114    -0.16400
C1345       C  0.84491310  0.69438343  0.55168651     0.33000
C1346       C  0.84583217  0.68925354  0.97929909     0.33000
C1347       C  0.80548357  0.67599864  0.53310975    -0.03200
C1348       C  0.87105489  0.73791668  0.53534340    -0.04000
C1349       C  0.85709678  0.66637418  0.53399794    -0.03800
C1350       C  0.80559400  0.66620699  0.99445419    -0.03200
C1351       C  0.86755111  0.73409558  0.99965074    -0.04000
C1352       C  0.86352348  0.66774368  0.99624166    -0.03900
C1353       C  0.76819527  0.64838213  0.98193541    -0.29200
N1354       N  0.74577399  0.63792572  0.01044287     0.17300
C1355       C  0.76880988  0.66052024  0.54319774    -0.29200
H1356       H  0.75933128  0.65729204  0.57017112     0.19200
C1357       C  0.88836923  0.77662748  0.99131752    -0.28200
N1358       N  0.90817027  0.80449002  0.51796920     0.16000
C1359       C  0.89491818  0.78123297  0.54704823    -0.28200
C1360       C  0.88346723  0.65036070  0.98511069    -0.28500
N1361       N  0.89472580  0.64008437  0.01443365     0.16500
H1362       H  0.88997845  0.64630114  0.95801985     0.19100
C1363       C  0.87314406  0.64532635  0.54510510    -0.28500
H1364       H  0.87940648  0.64251211  0.57234880     0.19100
H1365       H  0.90120982  0.79491671  0.57441403     0.19100
H1366       H  0.75825869  0.64458888  0.95445903     0.19200
H1367       H  0.89440175  0.78824767  0.96490458     0.19100
C1368       C  0.85839516  0.69446553  0.80190162     0.33000
C1369       C  0.85336863  0.69139120  0.72983086     0.33000
C1370       C  0.81777280  0.67265122  0.78505350    -0.03200
C1371       C  0.88072843  0.73853916  0.78599275    -0.04000
C1372       C  0.87330605  0.67029300  0.78219312    -0.03800
C1373       C  0.81506380  0.67106838  0.74805215    -0.03200
C1374       C  0.87809548  0.73683472  0.74894698    -0.04000
C1375       C  0.87084082  0.66873063  0.74508472    -0.03900
C1376       C  0.77706702  0.65328331  0.73816497    -0.29200
N1377       N  0.75722866  0.64429278  0.76826563     0.17300
C1378       C  0.78154848  0.65580421  0.79704380    -0.29200
H1379       H  0.77350886  0.65271964  0.82449616     0.19200
C1380       C  0.89886429  0.77877474  0.73932043    -0.28200
N1381       N  0.91385136  0.80549770  0.76955022     0.16000
C1382       C  0.90312299  0.78165210  0.79827997    -0.28200
C1383       C  0.88854036  0.64933547  0.73224870    -0.28500
N1384       N  0.90136802  0.63933495  0.76062978     0.16500
H1385       H  0.89260706  0.64382389  0.70460868     0.19100
C1386       C  0.89230371  0.65182140  0.79120569    -0.28500
H1387       H  0.89982745  0.64861350  0.81785653     0.19100
H1388       H  0.91055035  0.79473513  0.82581495     0.19100
H1389       H  0.76485162  0.64786013  0.71134164     0.19200
H1390       H  0.90234204  0.78917354  0.71256717     0.19100
C1391       C  0.63131146  0.58161461  0.52274283     0.79500
Tb1392     Tb  0.95713563  0.51124110  0.52453474     1.80700
O1393       O  0.62016141  0.56504180  0.55214477    -0.48600
O1394       O  0.56022818  0.96895210  0.55868349    -0.56000
C1395       C  0.55280151  0.60424804  0.53388215     0.95300
O1396       O  0.93920200  0.55730076  0.05068890    -0.55500
Tb1397     Tb  0.55416991  0.52097378  0.53562177     1.78100
O1398       O  0.90670472  0.95945199  0.51153731    -0.56000
O1399       O  0.99811981  0.95554649  0.49877384    -0.74800
O1400       O  0.55922336  0.58423259  0.55545541    -0.74200
O1401       O  0.53218999  0.52344707  0.96775733    -0.59400
C1402       C  0.97113670  0.93520219  0.51961387     0.94900
O1403       O  0.98303240  0.52966035  0.58301354    -0.71400
C1404       C  0.87831994  0.45025602  0.52750784     0.78300
C1405       C  0.56986653  0.95447080  0.53300891     0.79300
O1406       O  0.60533557  0.56639749  0.99253518    -0.56600
O1407       O  0.56854368  0.96791127  0.50358080    -0.48600
O1408       O  0.97472421  0.51378642  0.97061472    -0.74600
O1409       O  0.53226074  0.52277745  0.59193198    -0.58600
C1410       C  0.50396438  0.52311055  0.60315897     0.93100
C1411       C  0.49980681  0.50971543  0.95171760     0.94300
C1412       C  0.94509732  0.57635029  0.02253378     0.78600
O1413       O  0.89948528  0.47499995  0.55392971    -0.48000
O1414       O  0.93702408  0.04710073  0.99471248    -0.49100
O1415       O  0.96311463  0.95508987  0.54200771    -0.62000
O1416       O  0.52464790  0.58420201  0.51127128    -0.63100
C1417       C  0.64228006  0.57884438  0.77367473     0.79500
Tb1418     Tb  0.96950822  0.51454509  0.77464018     1.80700
O1419       O  0.62523541  0.57538747  0.80195264    -0.48600
O1420       O  0.58397943  0.98456825  0.81486970    -0.56000
C1421       C  0.55695359  0.60083385  0.77785596     0.95300
O1422       O  0.94878746  0.55849265  0.79428338    -0.55500
Tb1423     Tb  0.56307105  0.51990261  0.77818228     1.78100
O1424       O  0.90984832  0.95871375  0.76305911    -0.56000
O1425       O  0.49502827  0.94811575  0.79068964    -0.74800
O1426       O  0.56582525  0.57948695  0.75837166    -0.74200
O1427       O  0.53540077  0.50308474  0.72013563    -0.59400
C1428       C  0.97401411  0.93573336  0.77203594     0.94900
O1429       O  0.98592451  0.50784611  0.83338491    -0.71400
C1430       C  0.89073014  0.45640746  0.78446896     0.78300
C1431       C  0.57617588  0.95518652  0.79113834     0.79300
O1432       O  0.62020390  0.55425993  0.74762153    -0.56600
O1433       O  0.55651574  0.95288960  0.76454553    -0.48600
O1434       O  0.99354628  0.52010270  0.71636994    -0.74600
O1435       O  0.55474836  0.53946112  0.83588960    -0.58600
C1436       C  0.52422843  0.52614288  0.85250136     0.93100
C1437       C  0.51454419  0.51203325  0.70358025     0.94300
C1438       C  0.94971910  0.57314569  0.76489153     0.78600
O1439       O  0.91614669  0.47057777  0.80934929    -0.48000
O1440       O  0.96571693  0.06787385  0.75228648    -0.49100
O1441       O  0.96595978  0.95539224  0.79457364    -0.62000
O1442       O  0.52927112  0.58201971  0.79818903    -0.63100
C1443       C  0.67340451  0.84502894  0.50134037     0.33000
C1444       C  0.67563445  0.84872544  0.57343243     0.33000
C1445       C  0.65392302  0.86505258  0.51929646    -0.03200
C1446       C  0.65389533  0.80116598  0.51747005    -0.04000
C1447       C  0.71374331  0.87111025  0.51973433    -0.03800
C1448       C  0.65498846  0.86692623  0.55638719    -0.03200
C1449       C  0.65515385  0.80325249  0.55455313    -0.04000
C1450       C  0.71498889  0.87299699  0.55682243    -0.03900
C1451       C  0.63413742  0.88310532  0.56759231    -0.29200
N1452       N  0.62070818  0.89087649  0.53822544     0.17300
C1453       C  0.63252650  0.88011913  0.50861212    -0.29200
H1454       H  0.62575054  0.88274630  0.48147222     0.19200
C1455       C  0.63534695  0.76151105  0.56452874    -0.28200
N1456       N  0.62222616  0.73445025  0.53448455     0.16000
C1457       C  0.63314186  0.75792316  0.50549910    -0.28200
C1458       C  0.75267707  0.89108903  0.56820884    -0.28500
N1459       N  0.77384062  0.90019908  0.53899176     0.16500
H1460       H  0.76357201  0.89539970  0.59542410     0.19100
C1461       C  0.75057780  0.88810884  0.50926115    -0.28500
H1462       H  0.75950841  0.88966385  0.48220831     0.19100
H1463       H  0.61561290  0.73990728  0.97817887     0.19100
H1464       H  0.62885260  0.88850193  0.59482592     0.19200
H1465       H  0.63005427  0.75143458  0.59143089     0.19100
C1466       C  0.67720078  0.84416993  0.75158545     0.33000
C1467       C  0.67768173  0.84322327  0.82348412     0.33000
C1468       C  0.66119950  0.86733112  0.77095704    -0.03200
C1469       C  0.65378026  0.79907136  0.76576003    -0.04000
C1470       C  0.71686343  0.86506480  0.77041792    -0.03800
C1471       C  0.66139457  0.86679465  0.80790497    -0.03200
C1472       C  0.65407962  0.79876011  0.80273317    -0.04000
C1473       C  0.71722619  0.86457781  0.80742873    -0.03900
C1474       C  0.64168153  0.88388141  0.82028003    -0.29200
N1475       N  0.62983502  0.89462820  0.79173269     0.17300
C1476       C  0.64143571  0.88478690  0.76149801    -0.29200
H1477       H  0.63464324  0.88848178  0.73471925     0.19200
C1478       C  0.63248497  0.75624916  0.81081644    -0.28200
N1479       N  0.61929041  0.73106411  0.77975028     0.16000
C1480       C  0.63193292  0.75647941  0.75194894    -0.28200
C1481       C  0.75461602  0.88190359  0.81922861    -0.28500
N1482       N  0.77636884  0.89260195  0.79030317     0.16500
H1483       H  0.76515046  0.88590975  0.84652351     0.19100
C1484       C  0.75388181  0.88267462  0.76040458    -0.28500
H1485       H  0.76370644  0.88738581  0.73352522     0.19100
H1486       H  0.62605471  0.74481766  0.72407198     0.18300
H1487       H  0.63512739  0.88673167  0.84761884     0.19200
H1488       H  0.62713890  0.74441142  0.83714678     0.19100
C1489       C  0.66733831  0.83820242  0.96242446    -0.15500
C1490       C  0.66931600  0.83849143  0.93064856     0.08600
C1491       C  0.67359640  0.84026418  0.89375665     0.10400
C1492       C  0.67679097  0.84202465  0.86214803    -0.16400
C1493       C  0.67695329  0.84505472  0.71287960    -0.15500
C1494       C  0.67688299  0.84681419  0.68114592     0.08600
C1495       C  0.67678791  0.84895165  0.64406737     0.10400
C1496       C  0.67651145  0.84984427  0.61225268    -0.16400
C1497       C  0.57858507  0.64684646  0.77689335    -0.10300
C1498       C  0.59720811  0.68574450  0.77730127    -0.11800
C1499       C  0.81618081  0.91228639  0.79092212    -0.10300
C1500       C  0.85065272  0.93149065  0.79046180    -0.11800
C1501       C  0.59122822  0.92944084  0.79298605    -0.10300
C1502       C  0.60815877  0.91224503  0.79298905    -0.11800
C1503       C  0.59886959  0.68919633  0.53394805    -0.10300
C1504       C  0.57821182  0.65036412  0.53428892    -0.11800
C1505       C  0.84770933  0.93554858  0.53847320    -0.10300
C1506       C  0.81339055  0.91808664  0.53911944    -0.11800
C1507       C  0.58378005  0.92774482  0.53694705    -0.10300
C1508       C  0.59971928  0.90941877  0.53825216    -0.11800
C1509       C  0.49672907  0.50907614  0.91230632    -0.13400
C1510       C  0.52751438  0.52740582  0.89195939    -0.28600
H1511       H  0.54378731  0.01233097  0.90597645     0.15600
H1512       H  0.55619623  0.54289710  0.90451612     0.16200
C1513       C  0.51662929  0.51162145  0.66425553    -0.13400
C1514       C  0.49843939  0.52247702  0.64220921    -0.28600
H1515       H  0.53526106  0.50288967  0.65299968     0.15600
H1516       H  0.05128573  0.02226091  0.64929847     0.16200
C1517       C  0.93606689  0.59992082  0.75996972    -0.10300
C1518       C  0.92085819  0.61905542  0.75908946    -0.11800
C1519       C  0.95321270  0.88961045  0.77113936    -0.10300
C1520       C  0.93531687  0.85075129  0.77069883    -0.11800
C1521       C  0.71755066  0.62485918  0.76970341    -0.10300
C1522       C  0.68322543  0.60603460  0.77161411    -0.11800
C1523       C  0.93137088  0.60295719  0.01685438    -0.10300
C1524       C  0.91542343  0.62119798  0.01468282    -0.11800
C1525       C  0.94963969  0.88884024  0.51851652    -0.10300
C1526       C  0.93086482  0.84985417  0.51840716    -0.11800
C1527       C  0.67143864  0.60927218  0.51564916    -0.10300
C1528       C  0.70585082  0.62878371  0.51308158    -0.11800
C1529       C  0.84774078  0.69002227  0.94064022    -0.15500
C1530       C  0.85207562  0.69196808  0.90916701     0.08600
C1531       C  0.85753887  0.69449059  0.87244492     0.10400
C1532       C  0.86003197  0.69559589  0.84073051    -0.16400
C1533       C  0.84589536  0.69591309  0.59058319    -0.15500
C1534       C  0.84710942  0.69474375  0.62236818     0.08600
C1535       C  0.84894014  0.69221833  0.65934256     0.10400
C1536       C  0.85079319  0.69072360  0.69103486    -0.16400
loop_ 
_geom_bond_atom_site_label_1 
_geom_bond_atom_site_label_2 
_geom_bond_distance 
_geom_bond_site_symmetry_2 
_ccdc_geom_bond_type 
C1            C3   1.529       .  S
C1            C5   1.527       .  S
C1            C4   1.532       .  S
C1          C189   1.459       .  S
C2            C6   1.533       .  S
C2            C8   1.529       .  S
C2            C7   1.526       .  S
C2          C185   1.460       .  S
C3           C11   1.372       .  A
C3          C198   1.393   1_554  A
C4           C15   1.377       .  A
C4          C199   1.393   1_554  A
C5           C19   1.373       .  A
C5          C200   1.391   1_554  A
C6            C9   1.377       .  A
C6          C195   1.394       .  A
C7           C13   1.371       .  A
C7          C196   1.392       .  A
C8           C16   1.375       .  A
C8          C197   1.392       .  A
C9           N10   1.357       .  A
C9           H22   1.083       .  S
N10         C203   1.354       .  A
N10         C376   1.399       .  S
C11         N202   1.355       .  A
C11          H12   1.083       .  S
C13         N206   1.353       .  A
C13          H23   1.082       .  S
N14          C15   1.357       .  A
N14         C205   1.354   1_554  A
N14         C182   1.399       .  S
C15          H21   1.082       .  S
C16          N17   1.355       .  A
C16          H18   1.083       .  S
N17         C211   1.354       .  A
N17         C180   1.396       .  S
C19         N209   1.354       .  A
C19          H20   1.083       .  S
C24          C26   1.527       .  S
C24          C28   1.531       .  S
C24          C27   1.530       .  S
C24         C188   1.461       .  S
C25          C29   1.528       .  S
C25          C31   1.532       .  S
C25          C30   1.528       .  S
C25         C192   1.459       .  S
C26          C34   1.374       .  A
C26          C29   1.390       .  A
C27          C38   1.374       .  A
C27          C30   1.393       .  A
C28          C42   1.373       .  A
C28          C31   1.395       .  A
C29          C32   1.375       .  A
C30          C36   1.373       .  A
C31          C39   1.377       .  A
C32          N33   1.355       .  A
C32          H45   1.083       .  S
N33          C34   1.354       .  A
N33         C177   1.397       .  S
C34          H35   1.083       .  S
C36          N37   1.353       .  A
C36          H46   1.082       .  S
N37          C38   1.356       .  A
N37         C176   1.396       .  S
C38          H44   1.083       .  S
C39          N40   1.357       .  A
C39          H41   1.082       .  S
N40          C42   1.355       .  A
N40         C174   1.400       .  S
C42          H43   1.083       .  S
C47          O49   1.256       .  A
C47         O254   1.259   1_554  A
C47         C183   1.430       .  S
Tb48         O59   2.374       .  S
Tb48         O69   2.356   1_545  S
Tb48        O646   2.342   1_554  S
Tb48        O455   2.327   1_544  S
Tb48        O438   2.339   1_545  S
Tb48        O256   2.342   1_554  S
Tb48        O244   2.354       .  S
Tb48        O840   2.328       .  S
O49         Tb53   2.345       .  S
O50          C61   1.262       .  A
O50        Tb437   2.356       .  S
C51          O56   1.262       .  A
C51          O72   1.263       .  A
C51         C160   1.426       .  S
O52          C68   1.261       .  A
O52        Tb240   2.349       .  S
Tb53         O56   2.330       .  S
Tb53         O65   2.392       .  S
Tb53        O434   2.366   1_545  S
Tb53        O249   2.379   1_554  S
Tb53        O254   2.362   1_554  S
Tb53        O447   2.359   1_545  S
Tb53       O1207   2.328   1_445  S
O54         C444   1.261       .  A
O54        Tb432   2.354       .  S
O55          C58   1.262       .  A
O55       Tb1205   2.332       .  S
O57          C67   1.274       .  A
O57        Tb245   2.337       .  S
C58          O71   1.263       .  A
C58         C181   1.430       .  S
O59         C834   1.277       .  A
C60          O69   1.263       .  A
C60         O438   1.261       .  A
C60         C545   1.430       .  S
C61          O63   1.260       .  A
C61         C163   1.431       .  S
O62         C239   1.259       .  A
O62        Tb245   2.349       .  S
O63        Tb437   2.341       .  S
O64         C835   1.270   1_565  A
O64        Tb240   2.336   1_565  S
O65          C66   1.282       .  A
C66         O827   1.268   1_455  A
C66         C170   1.485       .  S
C67         O832   1.277   1_455  A
C67         C165   1.491   1_455  S
C68         O454   1.259       .  A
C68         C179   1.426       .  S
O70         C452   1.258       .  A
O70        Tb624   2.344       .  S
O71        Tb432   2.342       .  S
O72        Tb816   2.337   1_455  S
C73          O88   1.259       .  A
C73          O75   1.261       .  A
C73         C178   1.427       .  S
Tb74         O90   2.378       .  S
Tb74         O85   2.382       .  S
Tb74         O78   2.350       .  S
Tb74         O95   2.363   1_545  S
Tb74        O480   2.361       .  S
Tb74        O481   2.329   1_545  S
Tb74        O464   2.347   1_545  S
Tb74        O866   2.328       .  S
O75         Tb79   2.347       .  S
O76          C87   1.263       .  A
O76        Tb463   2.363       .  S
C77          O82   1.264       .  A
C77          O98   1.261       .  A
C77         C153   1.435       .  S
O78          C94   1.256       .  A
Tb79         O83   2.327   1_545  S
Tb79         O88   2.345       .  S
Tb79         O82   2.350       .  S
Tb79         O91   2.332       .  S
Tb79        O460   2.339   1_545  S
Tb79        O473   2.350   1_545  S
Tb79        O465   2.340   1_545  S
O80         C470   1.260       .  A
O80        Tb458   2.345       .  S
O81         C852   1.261       .  A
O81        Tb463   2.330   1_655  S
O83          C93   1.267   1_565  A
C84          O97   1.262       .  A
C84         O849   1.262       .  A
C84         C175   1.427       .  S
O85         C860   1.279       .  A
C86          O95   1.258       .  A
C86         O464   1.256       .  A
C86         C540   1.430       .  S
C87          O89   1.260       .  A
C87         C157   1.438       .  S
O89        Tb463   2.349       .  S
O90         C861   1.278       .  A
O91          C92   1.271       .  A
C92         O853   1.278   1_455  A
C92         C166   1.484       .  S
C93         O858   1.281   1_455  A
C93         C169   1.485       .  S
C94         O480   1.258       .  A
C94         C173   1.431       .  S
O96         C478   1.259       .  A
O96        Tb458   2.346       .  S
O97        Tb458   2.332       .  S
O98        Tb842   2.331   1_455  S
C99         C101   1.526       .  S
C99         C103   1.524       .  S
C99         C102   1.526       .  S
C99         C337   1.457   1_554  S
C100        C104   1.534       .  S
C100        C106   1.532       .  S
C100        C105   1.530       .  S
C100        C152   1.459       .  S
C101        C109   1.371       .  A
C101        C104   1.393       .  A
C102        C113   1.372       .  A
C102        C105   1.393       .  A
C103        C117   1.371       .  A
C103        C106   1.391       .  A
C104        C107   1.378       .  A
C105        C111   1.373       .  A
C106        C114   1.378       .  A
C107        N108   1.357       .  A
C107        H120   1.082       .  S
N108        C109   1.354       .  A
N108        C164   1.399       .  S
C109        H110   1.083   1_554  S
C111        N112   1.355       .  A
C111        H121   1.082       .  S
N112        C113   1.354       .  A
N112        C159   1.396       .  S
C113        H311   1.083   1_554  S
C114        N115   1.357       .  A
C114        H116   1.083       .  S
N115        C117   1.352       .  A
N115        C162   1.397       .  S
C117        H118   1.082   1_554  S
H119        C305   1.083       .  S
C122        C124   1.529       .  S
C122        C126   1.530       .  S
C122        C125   1.529       .  S
C122        C149   1.460       .  S
C123        C127   1.536       .  S
C123        C129   1.537       .  S
C123        C128   1.533       .  S
C123        C148   1.460       .  S
C124        C132   1.374       .  A
C124        C127   1.391       .  A
C125        C136   1.376       .  A
C125        C128   1.392       .  A
C126        C140   1.375       .  A
C126        C129   1.393       .  A
C127        C130   1.382       .  A
C128        C134   1.377       .  A
C129        C137   1.382       .  A
C130        N131   1.359       .  A
C130        H143   1.082       .  S
N131        C132   1.355       .  A
N131        C158   1.404       .  S
C132        H133   1.083       .  S
C134        N135   1.357       .  A
C134        H144   1.082       .  S
N135        C136   1.356       .  A
N135        C154   1.402       .  S
C136        H142   1.082       .  S
C137        N138   1.359       .  A
C137        H139   1.083       .  S
N138        C140   1.356       .  A
N138        C155   1.405       .  S
C140        H141   1.083       .  S
C145        C291   1.460       .  S
C145        C146   1.201       .  T
C146        C147   1.404       .  S
C147        C148   1.201       .  T
C149        C150   1.200       .  T
C150        C151   1.403       .  S
C151        C152   1.200       .  T
C153        C154   1.206       .  T
C155        C156   1.208       .  T
C156        C470   1.439       .  S
C157        C158   1.208       .  T
C159        C160   1.201       .  T
C161        C444   1.428       .  S
C161        C162   1.202       .  T
C163        C164   1.204       .  T
C165        C166   1.348   1_655  D
C165        H551   1.086       .  S
C166        H168   1.087       .  S
H167        C549   1.087       .  S
C169        C170   1.341       .  D
C169        H171   1.087   1_545  S
C170       H1324   1.087   1_455  S
H172       C1322   1.087       .  S
C173        C174   1.204       .  T
C175        C176   1.201       .  T
C177        C178   1.202       .  T
C179        C180   1.201       .  T
C181        C182   1.203       .  T
C183        C184   1.203       .  T
C184        N202   1.399       .  S
C185        C186   1.201       .  T
C186        C187   1.404       .  S
C187        C188   1.201       .  T
C189        C190   1.200       .  T
C190        C191   1.403       .  S
C191        C192   1.200       .  T
C193        C195   1.528       .  S
C193        C197   1.527       .  S
C193        C196   1.527       .  S
C193        C381   1.460       .  S
C194        C198   1.531       .  S
C194        C200   1.529       .  S
C194        C199   1.528       .  S
C194        C377   1.457       .  S
C195        C203   1.372       .  A
C196        C207   1.372       .  A
C197        C211   1.372       .  A
C198        C201   1.377       .  A
C199        C205   1.372       .  A
C200        C208   1.375       .  A
C201        N202   1.356   1_556  A
C201        H214   1.082       .  S
C203        H204   1.082       .  S
C205        H215   1.083       .  S
N206        C207   1.355       .  A
N206        C374   1.394       .  S
C207        H213   1.083       .  S
C208        N209   1.355   1_556  A
C208        H210   1.083       .  S
N209        C372   1.397       .  S
C211        H212   1.083       .  S
C216        C218   1.527       .  S
C216        C220   1.529       .  S
C216        C219   1.527       .  S
C216        C380   1.458       .  S
C217        C221   1.531       .  S
C217        C223   1.532       .  S
C217        C222   1.529       .  S
C217        C384   1.459       .  S
C218        C226   1.373       .  A
C218        C221   1.391       .  A
C219        C230   1.374       .  A
C219        C222   1.392       .  A
C220        C234   1.373       .  A
C220        C223   1.394       .  A
C221        C224   1.377       .  A
C222        C228   1.373       .  A
C223        C231   1.376       .  A
C224        N225   1.357       .  A
C224        H237   1.083       .  S
N225        C226   1.354       .  A
N225        C369   1.399       .  S
C226        H227   1.083       .  S
C228        N229   1.355       .  A
C228        H238   1.082       .  S
N229        C230   1.355       .  A
N229        C368   1.397       .  S
C230        H236   1.083       .  S
C231        N232   1.356       .  A
C231        H233   1.083       .  S
N232        C234   1.355       .  A
N232        C366   1.399       .  S
C234        H235   1.083       .  S
C239        O241   1.260       .  A
C239        C375   1.431       .  S
Tb240       O454   2.344       .  S
Tb240       O647   2.339   1_545  S
Tb240       O630   2.354   1_545  S
Tb240       O251   2.333       .  S
Tb240      O1032   2.337       .  S
Tb240       O261   2.342   1_545  S
O241       Tb245   2.355       .  S
O242        C253   1.259       .  A
O242       Tb629   2.366       .  S
C243        O248   1.263       .  A
C243        O264   1.262       .  A
C243        C352   1.430       .  S
O244        C260   1.261       .  A
Tb245       O626   2.356   1_545  S
Tb245       O248   2.338       .  S
Tb245       O639   2.339   1_545  S
Tb245       O257   2.372       .  S
Tb245      O1399   2.333   1_445  S
O246        C636   1.261       .  A
O246       Tb624   2.341       .  S
O247        C250   1.261       .  A
O247      Tb1397   2.332       .  S
O249        C259   1.278       .  A
C250        O263   1.261       .  A
C250        C373   1.423       .  S
O251       C1026   1.271       .  A
C252        O630   1.261       .  A
C252        O261   1.257       .  A
C252        C737   1.427       .  S
C253        O255   1.257       .  A
C253        C355   1.438       .  S
O255       Tb629   2.359       .  S
O256       C1027   1.274       .  A
O257        C258   1.277       .  A
C258       O1019   1.272   1_455  A
C258        C362   1.486       .  S
C259       O1024   1.271   1_445  A
C259        C357   1.483       .  S
C260        O646   1.259   1_554  A
C260        C371   1.428       .  S
O262        C644   1.259   1_556  A
O262       Tb432   2.348   1_556  S
O263       Tb624   2.330       .  S
O264      Tb1008   2.335   1_455  S
C265        O280   1.258       .  A
C265        O267   1.260       .  A
C265        C370   1.430       .  S
Tb266       O672   2.347       .  S
Tb266       O673   2.331   1_545  S
Tb266       O656   2.348   1_545  S
Tb266       O282   2.341       .  S
Tb266       O277   2.364       .  S
Tb266       O270   2.351       .  S
Tb266      O1058   2.338       .  S
Tb266       O287   2.366   1_545  S
O267       Tb271   2.352       .  S
O268        C279   1.258       .  A
O268       Tb655   2.340       .  S
C269        O274   1.262       .  A
C269        O290   1.261       .  A
C269        C345   1.424       .  S
O270        C286   1.260       .  A
Tb271       O652   2.362   1_545  S
Tb271       O275   2.335       .  S
Tb271       O280   2.346       .  S
Tb271       O274   2.336       .  S
Tb271       O665   2.346   1_545  S
Tb271       O283   2.376       .  S
Tb271       O657   2.329   1_545  S
O272        C662   1.256       .  A
O272       Tb650   2.349       .  S
O273       C1044   1.262       .  A
O273       Tb655   2.338   1_655  S
O275        C285   1.273       .  A
C276       O1041   1.261       .  A
C276        O289   1.261       .  A
C276        C367   1.427       .  S
O277       C1052   1.275       .  A
C278        O656   1.261       .  A
C278        O287   1.264       .  A
C278        C732   1.440       .  S
C279        O281   1.262       .  A
C279        C349   1.426       .  S
O281       Tb655   2.351       .  S
O282       C1053   1.275       .  A
O283        C284   1.277       .  A
C284       O1045   1.274   1_455  A
C284        C358   1.489       .  S
C285       O1050   1.278   1_455  A
C285        C361   1.487       .  S
C286        O672   1.259       .  A
C286        C365   1.430       .  S
O288        C670   1.258       .  A
O288       Tb650   2.357       .  S
O289       Tb650   2.331       .  S
O290      Tb1034   2.326   1_455  S
C291        C293   1.531       .  S
C291        C295   1.527       .  S
C291        C294   1.530       .  S
C292        C296   1.535       .  S
C292        C298   1.532       .  S
C292        C297   1.529       .  S
C292        C344   1.458       .  S
C293        C301   1.375       .  A
C293        C296   1.394       .  A
C294        C305   1.375       .  A
C294        C297   1.391       .  A
C295        C309   1.373       .  A
C295        C298   1.390       .  A
C296        C299   1.380       .  A
C297        C303   1.374       .  A
C298        C306   1.379       .  A
C299        N300   1.358       .  A
C299        H312   1.082       .  S
N300        C301   1.355       .  A
N300        C356   1.404       .  S
C301        H302   1.083       .  S
C303        N304   1.354       .  A
C303        H313   1.082       .  S
N304        C305   1.356       .  A
N304        C351   1.399       .  S
C306        N307   1.357       .  A
C306        H308   1.083       .  S
N307        C309   1.354       .  A
N307        C354   1.400       .  S
C309        H310   1.083       .  S
C314        C316   1.527       .  S
C314        C318   1.528       .  S
C314        C317   1.528       .  S
C314        C341   1.458       .  S
C315        C319   1.528       .  S
C315        C321   1.532       .  S
C315        C320   1.526       .  S
C315        C340   1.457       .  S
C316        C324   1.372       .  A
C316        C319   1.392       .  A
C317        C328   1.374       .  A
C317        C320   1.392       .  A
C318        C332   1.372       .  A
C318        C321   1.394       .  A
C319        C322   1.376       .  A
C320        C326   1.371       .  A
C321        C329   1.377       .  A
C322        N323   1.355       .  A
C322        H335   1.082       .  S
N323        C324   1.353       .  A
N323        C350   1.396       .  S
C324        H325   1.083       .  S
C326        N327   1.353       .  A
C326        H336   1.082       .  S
N327        C328   1.355       .  A
N327        C346   1.394       .  S
C328        H334   1.083       .  S
C329        N330   1.357       .  A
C329        H331   1.083       .  S
N330        C332   1.354       .  A
N330        C347   1.399       .  S
C332        H333   1.083       .  S
C337        C338   1.199       .  T
C338        C339   1.401       .  S
C339        C340   1.199       .  T
C341        C342   1.199       .  T
C342        C343   1.402       .  S
C343        C344   1.200       .  T
C345        C346   1.199       .  T
C347        C348   1.203       .  T
C348        C662   1.430       .  S
C349        C350   1.201       .  T
C351        C352   1.203       .  T
C353        C636   1.432       .  S
C353        C354   1.204       .  T
C355        C356   1.208       .  T
C357        C358   1.348       .  D
C357        H743   1.087   1_455  S
C358        H360   1.086       .  S
H359        C741   1.086       .  S
C361        C362   1.352       .  D
C361        H363   1.086   1_455  S
C362       H1516   1.086       .  S
H364       C1514   1.086       .  S
C365        C366   1.203       .  T
C367        C368   1.201       .  T
C369        C370   1.203       .  T
C371        C372   1.202       .  T
C373        C374   1.199       .  T
C375        C376   1.203       .  T
C377        C378   1.199       .  T
C378        C379   1.401       .  S
C379        C380   1.199       .  T
C381        C382   1.201       .  T
C382        C383   1.403       .  S
C383        C384   1.201       .  T
C385        C387   1.526       .  S
C385        C389   1.527       .  S
C385        C388   1.526       .  S
C385        C573   1.459       .  S
C386        C390   1.534       .  S
C386        C392   1.531       .  S
C386        C391   1.529       .  S
C386        C569   1.460       .  S
C387        C395   1.371       .  A
C387        C582   1.394   1_554  A
C388        C399   1.372       .  A
C388        C583   1.393   1_554  A
C389        C403   1.372       .  A
C389        C584   1.392   1_554  A
C390        C579   1.394       .  A
C390        C393   1.378       .  A
C391        C580   1.393       .  A
C391        C397   1.372       .  A
C392        C581   1.391       .  A
C392        C400   1.377       .  A
C393        N394   1.357       .  A
C393        H406   1.082       .  S
N394        C587   1.354       .  A
N394        C760   1.399       .  S
C395        N586   1.353       .  A
C395        H396   1.082       .  S
C397        N590   1.354       .  A
C397        H407   1.083       .  S
N398        C589   1.353   1_554  A
N398        C399   1.354       .  A
N398        C566   1.392       .  S
C399        H405   1.083       .  S
C400        N401   1.356       .  A
C400        H402   1.083       .  S
N401        C595   1.353       .  A
N401        C564   1.398       .  S
C403        N593   1.354       .  A
C403        H404   1.082       .  S
C408        C410   1.527       .  S
C408        C412   1.531       .  S
C408        C411   1.528       .  S
C408        C572   1.460       .  S
C409        C413   1.528       .  S
C409        C415   1.531       .  S
C409        C414   1.527       .  S
C409        C576   1.459       .  S
C410        C418   1.373       .  A
C410        C413   1.391       .  A
C411        C422   1.374       .  A
C411        C414   1.392       .  A
C412        C426   1.373       .  A
C412        C415   1.395       .  A
C413        C416   1.375       .  A
C414        C420   1.372       .  A
C415        C423   1.376       .  A
C416        N417   1.355       .  A
C416        H429   1.083       .  S
N417        C418   1.354       .  A
N417        C561   1.397       .  S
C418        H419   1.083       .  S
C420        N421   1.354       .  A
C420        H430   1.082       .  S
N421        C422   1.355       .  A
N421        C560   1.396       .  S
C422        H428   1.083       .  S
C423        N424   1.356       .  A
C423        H425   1.083       .  S
N424        C426   1.355       .  A
N424        C558   1.398       .  S
C426        H427   1.083       .  S
C431        O638   1.258   1_554  A
C431        O433   1.260       .  A
C431        C567   1.427       .  S
Tb432       O640   2.336   1_554  S
Tb432       O443   2.332       .  S
Tb432       O628   2.352       .  S
Tb432      O1224   2.337       .  S
Tb432       O453   2.342       .  S
O433       Tb437   2.351       .  S
O434        C445   1.258       .  A
C435        O440   1.262       .  A
C435        O456   1.262       .  A
C435        C544   1.427       .  S
O436        C452   1.261       .  A
O436       Tb624   2.358       .  S
Tb437       O633   2.331   1_554  S
Tb437       O638   2.344   1_554  S
Tb437       O440   2.335       .  S
Tb437       O449   2.372       .  S
Tb437       O823   2.328   1_454  S
O439        C442   1.261       .  A
O439       Tb821   2.329   1_565  S
O441        C451   1.277   1_455  A
O441       Tb629   2.377       .  S
C442        O455   1.261   1_554  A
C442        C565   1.420       .  S
O443       C1218   1.271       .  A
C444        O453   1.257       .  A
C445        O447   1.257       .  A
C445        C547   1.438       .  S
O446        C623   1.259       .  A
O446       Tb629   2.363       .  S
O448       C1219   1.274       .  A
O448       Tb624   2.343       .  S
O449        C450   1.277       .  A
C450       O1211   1.272   1_455  A
C450        C554   1.485       .  S
C451       O1216   1.271       .  A
C451        C549   1.482       .  S
C452        C563   1.429       .  S
O456      Tb1200   2.334   1_455  S
C457        O472   1.259       .  A
C457        O459   1.260       .  A
C457        C562   1.427       .  S
Tb458       O474   2.339       .  S
Tb458       O469   2.369       .  S
Tb458       O462   2.352       .  S
Tb458      O1250   2.339       .  S
Tb458       O479   2.366       .  S
O459       Tb463   2.349       .  S
O460        C471   1.258       .  A
C461        O466   1.263       .  A
C461        O482   1.261       .  A
C461        C537   1.424       .  S
O462        C478   1.260       .  A
Tb463       O467   2.336       .  S
Tb463       O472   2.345       .  S
Tb463       O466   2.338       .  S
Tb463       O475   2.372       .  S
O465       C1236   1.263   1_455  A
O467        C477   1.273       .  A
C468       O1233   1.262       .  A
C468        O481   1.260       .  A
C468        C559   1.427       .  S
O469       C1244   1.276       .  A
C470        O479   1.264       .  A
C471        O473   1.261       .  A
C471        C541   1.425       .  S
O474       C1245   1.274       .  A
O475        C476   1.276       .  A
C476       O1237   1.275   1_455  A
C476        C550   1.488       .  S
C477       O1242   1.277   1_455  A
C477        C553   1.486   1_455  S
C478        C557   1.429       .  S
O482      Tb1226   2.325   1_455  S
C483        C485   1.532       .  S
C483        C487   1.528       .  S
C483        C486   1.530       .  S
C483        C721   1.463   1_554  S
C484        C488   1.534       .  S
C484        C490   1.530       .  S
C484        C489   1.527       .  S
C484        C536   1.459       .  S
C485        C493   1.375       .  A
C485        C488   1.394       .  A
C486        C497   1.375       .  A
C486        C489   1.392       .  A
C487        C501   1.373       .  A
C487        C490   1.391       .  A
C488        C491   1.379       .  A
C489        C495   1.372       .  A
C490        C498   1.377       .  A
C491        N492   1.358       .  A
C491        H504   1.082       .  S
N492        C493   1.356       .  A
N492        C548   1.404       .  S
C493        H494   1.083   1_554  S
C495        N496   1.353       .  A
C495        H505   1.083       .  S
N496        C497   1.356       .  A
N496        C543   1.396       .  S
C497        H695   1.082   1_554  S
C498        N499   1.356       .  A
C498        H500   1.083       .  S
N499        C501   1.355       .  A
N499        C546   1.399       .  S
C501        H502   1.083   1_554  S
H503        C689   1.083       .  S
C506        C508   1.527       .  S
C506        C510   1.528       .  S
C506        C509   1.529       .  S
C506        C533   1.458       .  S
C507        C511   1.527       .  S
C507        C513   1.532       .  S
C507        C512   1.526       .  S
C507        C532   1.457       .  S
C508        C516   1.372       .  A
C508        C511   1.391       .  A
C509        C520   1.374       .  A
C509        C512   1.392       .  A
C510        C524   1.372       .  A
C510        C513   1.394       .  A
C511        C514   1.374       .  A
C512        C518   1.371       .  A
C513        C521   1.377       .  A
C514        N515   1.355       .  A
C514        H527   1.082       .  S
N515        C516   1.353       .  A
N515        C542   1.395       .  S
C516        H517   1.083       .  S
C518        N519   1.353       .  A
C518        H528   1.082       .  S
N519        C520   1.355       .  A
N519        C538   1.395       .  S
C520        H526   1.083       .  S
C521        N522   1.357       .  A
C521        H523   1.083       .  S
N522        C524   1.355       .  A
N522        C539   1.399       .  S
C524        H525   1.083       .  S
C529        C675   1.457       .  S
C529        C530   1.199       .  T
C530        C531   1.401       .  S
C531        C532   1.199       .  T
C533        C534   1.200       .  T
C534        C535   1.402       .  S
C535        C536   1.200       .  T
C537        C538   1.200       .  T
C539        C540   1.203       .  T
C541        C542   1.200       .  T
C543        C544   1.201       .  T
C545        C546   1.203       .  T
C547        C548   1.208       .  T
C549        C550   1.347   1_655  D
C550        H552   1.086       .  S
C553        C554   1.351   1_655  D
C553        H555   1.086       .  S
C554        H940   1.086       .  S
H556        C938   1.086       .  S
C557        C558   1.203       .  T
C559        C560   1.201       .  T
C561        C562   1.201       .  T
C563        C564   1.203       .  T
C565        C566   1.197       .  T
C567        C568   1.201       .  T
C568        N586   1.397       .  S
C569        C570   1.201       .  T
C570        C571   1.404       .  S
C571        C572   1.201       .  T
C573        C574   1.200       .  T
C574        C575   1.403       .  S
C575        C576   1.200       .  T
C577        C579   1.527       .  S
C577        C581   1.526       .  S
C577        C580   1.528       .  S
C577        C765   1.458       .  S
C578        C582   1.532       .  S
C578        C584   1.530       .  S
C578        C583   1.526       .  S
C578        C761   1.460       .  S
C579        C587   1.371       .  A
C580        C591   1.374       .  A
C581        C595   1.372       .  A
C582        C585   1.376       .  A
C583        C589   1.370       .  A
C584        C592   1.375       .  A
C585        N586   1.356   1_556  A
C585        H598   1.083       .  S
C587        H588   1.083       .  S
C589        H599   1.082       .  S
N590        C591   1.355       .  A
N590        C758   1.397       .  S
C591        H597   1.082       .  S
C592        N593   1.356   1_556  A
C592        H594   1.083       .  S
N593        C756   1.397       .  S
C595        H596   1.083       .  S
C600        C602   1.526       .  S
C600        C604   1.529       .  S
C600        C603   1.528       .  S
C600        C764   1.460       .  S
C601        C605   1.528       .  S
C601        C607   1.531       .  S
C601        C606   1.528       .  S
C601        C768   1.458       .  S
C602        C610   1.373       .  A
C602        C605   1.391       .  A
C603        C614   1.373       .  A
C603        C606   1.392       .  A
C604        C618   1.372       .  A
C604        C607   1.395       .  A
C605        C608   1.375       .  A
C606        C612   1.373       .  A
C607        C615   1.376       .  A
C608        N609   1.355       .  A
C608        H621   1.083       .  S
N609        C610   1.354       .  A
N609        C753   1.396       .  S
C610        H611   1.083       .  S
C612        N613   1.354       .  A
C612        H622   1.082       .  S
N613        C614   1.355       .  A
N613        C752   1.396       .  S
C614        H620   1.083       .  S
C615        N616   1.356       .  A
C615        H617   1.083       .  S
N616        C618   1.355       .  A
N616        C750   1.397       .  S
C618        H619   1.083       .  S
C623        O625   1.256       .  A
C623        C759   1.431       .  S
Tb624       O635   2.381       .  S
Tb624      O1416   2.332       .  S
Tb624       O645   2.356       .  S
O625       Tb629   2.348       .  S
O626        C637   1.263       .  A
C627        O632   1.262       .  A
C627        O648   1.263       .  A
C627        C736   1.426       .  S
O628        C644   1.261       .  A
Tb629       O632   2.331       .  S
Tb629       O641   2.395       .  S
Tb629      O1015   2.331   1_455  S
O631        C634   1.261       .  A
O631      Tb1013   2.330   1_565  S
O633        C643   1.273   1_455  A
C634        O647   1.262       .  A
C634        C757   1.427       .  S
O635       C1410   1.278       .  A
C636        O645   1.263       .  A
C637        O639   1.260       .  A
C637        C739   1.430       .  S
O640       C1411   1.271       .  A
O641        C642   1.283       .  A
C642       O1403   1.270   1_455  A
C642        C746   1.488       .  S
C643       O1408   1.276       .  A
C643        C741   1.489       .  S
C644        C755   1.429       .  S
O648      Tb1392   2.337   1_455  S
C649        O664   1.259       .  A
C649        O651   1.261       .  A
C649        C754   1.426       .  S
Tb650       O666   2.372       .  S
Tb650       O661   2.378       .  S
Tb650       O654   2.347       .  S
Tb650      O1442   2.328       .  S
Tb650       O671   2.360       .  S
O651       Tb655   2.346       .  S
O652        C663   1.263       .  A
C653        O658   1.263       .  A
C653        O674   1.260       .  A
C653        C729   1.430       .  S
O654        C670   1.257       .  A
Tb655       O659   2.330       .  S
Tb655       O664   2.344       .  S
Tb655       O658   2.345       .  S
Tb655       O667   2.333       .  S
O657       C1428   1.260   1_455  A
O659        C669   1.269       .  A
C660       O1425   1.263       .  A
C660        O673   1.262       .  A
C660        C751   1.427       .  S
O661       C1436   1.279       .  A
C662        O671   1.258       .  A
C663        O665   1.260       .  A
C663        C733   1.437       .  S
O666       C1437   1.276       .  A
O667        C668   1.271       .  A
C668       O1429   1.278   1_455  A
C668        C742   1.483       .  S
C669       O1434   1.282   1_455  A
C669        C745   1.488       .  S
C670        C749   1.428       .  S
O674      Tb1418   2.328   1_455  S
C675        C677   1.526       .  S
C675        C679   1.524       .  S
C675        C678   1.527       .  S
C676        C680   1.533       .  S
C676        C682   1.532       .  S
C676        C681   1.529       .  S
C676        C728   1.459       .  S
C677        C685   1.371       .  A
C677        C680   1.393       .  A
C678        C689   1.372       .  A
C678        C681   1.393       .  A
C679        C693   1.371       .  A
C679        C682   1.391       .  A
C680        C683   1.378       .  A
C681        C687   1.373       .  A
C682        C690   1.378       .  A
C683        N684   1.357       .  A
C683        H696   1.082       .  S
N684        C685   1.354       .  A
N684        C740   1.398       .  S
C685        H686   1.083       .  S
C687        N688   1.354       .  A
C687        H697   1.082       .  S
N688        C689   1.355       .  A
N688        C735   1.396       .  S
C690        N691   1.357       .  A
C690        H692   1.083       .  S
N691        C693   1.352       .  A
N691        C738   1.397       .  S
C693        H694   1.082       .  S
C698        C700   1.528       .  S
C698        C702   1.529       .  S
C698        C701   1.528       .  S
C698        C725   1.459       .  S
C699        C703   1.536       .  S
C699        C705   1.538       .  S
C699        C704   1.532       .  S
C699        C724   1.462       .  S
C700        C708   1.374       .  A
C700        C703   1.392       .  A
C701        C712   1.374       .  A
C701        C704   1.392       .  A
C702        C716   1.374       .  A
C702        C705   1.393       .  A
C703        C706   1.381       .  A
C704        C710   1.375       .  A
C705        C713   1.382       .  A
C706        N707   1.359       .  A
C706        H719   1.082       .  S
N707        C708   1.355       .  A
N707        C734   1.404       .  S
C708        H709   1.083       .  S
C710        N711   1.356       .  A
C710        H720   1.082       .  S
N711        C712   1.355       .  A
N711        C730   1.399       .  S
C712        H718   1.083       .  S
C713        N714   1.359       .  A
C713        H715   1.083       .  S
N714        C716   1.355       .  A
N714        C731   1.405       .  S
C716        H717   1.083       .  S
C721        C722   1.202       .  T
C722        C723   1.406       .  S
C723        C724   1.202       .  T
C725        C726   1.200       .  T
C726        C727   1.403       .  S
C727        C728   1.200       .  T
C729        C730   1.203       .  T
C731        C732   1.209       .  T
C733        C734   1.207       .  T
C735        C736   1.201       .  T
C737        C738   1.202       .  T
C739        C740   1.203       .  T
C741        C742   1.348   1_655  D
C742        H744   1.087       .  S
C745        C746   1.343       .  D
C745        H747   1.086       .  S
C746       H1132   1.087   1_455  S
H748       C1130   1.087       .  S
C749        C750   1.202       .  T
C751        C752   1.201       .  T
C753        C754   1.201       .  T
C755        C756   1.202       .  T
C757        C758   1.201       .  T
C759        C760   1.204       .  T
C761        C762   1.201       .  T
C762        C763   1.404       .  S
C763        C764   1.201       .  T
C765        C766   1.200       .  T
C766        C767   1.402       .  S
C767        C768   1.200       .  T
C769        C771   1.529       .  S
C769        C773   1.527       .  S
C769        C772   1.529       .  S
C769        C957   1.460       .  S
C770        C774   1.535       .  S
C770        C776   1.530       .  S
C770        C775   1.527       .  S
C770        C953   1.459       .  S
C771        C779   1.372       .  A
C771        C966   1.393   1_554  A
C772        C783   1.375       .  A
C772        C967   1.392   1_554  A
C773        C787   1.373       .  A
C773        C968   1.392   1_554  A
C774        C963   1.395       .  A
C774        C777   1.380       .  A
C775        C964   1.392       .  A
C775        C781   1.372       .  A
C776        C965   1.390       .  A
C776        C784   1.377       .  A
C777        N778   1.358       .  A
C777        H790   1.083       .  S
N778        C971   1.356       .  A
N778       C1144   1.403       .  S
C779        N970   1.355       .  A
C779        H780   1.083       .  S
C781        N974   1.353       .  A
C781        H791   1.083       .  S
N782        C973   1.354   1_554  A
N782        C783   1.356       .  A
N782        C950   1.397       .  S
C783        H789   1.083       .  S
C784        N785   1.356       .  A
C784        H786   1.082       .  S
N785        C979   1.356       .  A
N785        C948   1.401       .  S
C787        N977   1.354       .  A
C787        H788   1.082       .  S
C792        C794   1.527       .  S
C792        C796   1.530       .  S
C792        C795   1.528       .  S
C792        C956   1.459       .  S
C793        C797   1.530       .  S
C793        C799   1.531       .  S
C793        C798   1.527       .  S
C793        C960   1.460       .  S
C794        C802   1.373       .  A
C794        C797   1.391       .  A
C795        C806   1.374       .  A
C795        C798   1.392       .  A
C796        C810   1.372       .  A
C796        C799   1.395       .  A
C797        C800   1.376       .  A
C798        C804   1.371       .  A
C799        C807   1.376       .  A
C800        N801   1.356       .  A
C800        H813   1.083       .  S
N801        C802   1.354       .  A
N801        C945   1.398       .  S
C802        H803   1.082       .  S
C804        N805   1.353       .  A
C804        H814   1.082       .  S
N805        C806   1.355       .  A
N805        C944   1.395       .  S
C806        H812   1.082       .  S
C807        N808   1.356       .  A
C807        H809   1.083       .  S
N808        C810   1.355       .  A
N808        C942   1.398       .  S
C810        H811   1.083       .  S
C815       O1022   1.263   1_554  A
C815        O817   1.261       .  A
C815        C951   1.431       .  S
Tb816      O1414   2.347   1_554  S
Tb816      O1223   2.340   1_545  S
Tb816      O1206   2.348   1_545  S
Tb816      O1024   2.334   1_544  S
Tb816       O827   2.327       .  S
Tb816      O1012   2.351       .  S
Tb816       O837   2.337   1_545  S
O817       Tb821   2.339       .  S
O818        C829   1.259       .  A
O818      Tb1205   2.361       .  S
C819        O824   1.261       .  A
C819        O840   1.260       .  A
C819        C928   1.423       .  S
O820        C836   1.259       .  A
O820      Tb1008   2.340       .  S
Tb821      O1202   2.348   1_545  S
Tb821      O1017   2.363   1_554  S
Tb821      O1022   2.354   1_554  S
Tb821       O824   2.330       .  S
Tb821      O1215   2.356   1_545  S
Tb821       O833   2.333       .  S
O822       C1212   1.261       .  A
O822      Tb1200   2.351       .  S
O823        C826   1.261   1_556  A
O825        C835   1.280       .  A
O825      Tb1013   2.384       .  S
C826        O839   1.262       .  A
C826        C949   1.428       .  S
C828       O1206   1.261       .  A
C828        O837   1.258       .  A
C828       C1313   1.423       .  S
C829        O831   1.257       .  A
C829        C931   1.432       .  S
O830       C1007   1.259       .  A
O830      Tb1013   2.369       .  S
O831      Tb1205   2.350       .  S
O832      Tb1008   2.376       .  S
O833        C834   1.274       .  A
C834        C938   1.489       .  S
C835        C933   1.484       .  S
C836       O1222   1.263       .  A
C836        C947   1.433       .  S
O838       C1220   1.258       .  A
O838      Tb1392   2.349       .  S
O839      Tb1200   2.339       .  S
C841        O856   1.257       .  A
C841        O843   1.261       .  A
C841        C946   1.428       .  S
Tb842      O1248   2.365       .  S
Tb842      O1249   2.327   1_545  S
Tb842      O1232   2.352   1_545  S
Tb842       O858   2.391       .  S
Tb842       O853   2.381       .  S
Tb842       O846   2.345       .  S
Tb842       O863   2.361   1_545  S
O843       Tb847   2.355       .  S
O844        C855   1.260       .  A
O844      Tb1231   2.344       .  S
C845        O850   1.261       .  A
C845        O866   1.261       .  A
C845        C921   1.424       .  S
O846        C862   1.254       .  A
Tb847      O1228   2.337   1_545  S
Tb847       O851   2.338       .  S
Tb847       O856   2.342       .  S
Tb847       O850   2.334       .  S
Tb847      O1241   2.351   1_545  S
Tb847       O859   2.336       .  S
Tb847      O1233   2.340   1_545  S
O848       C1238   1.261       .  A
O848      Tb1226   2.354       .  S
O849      Tb1231   2.336       .  S
O851        C861   1.272       .  A
C852        O865   1.262       .  A
C852        C943   1.425       .  S
C854       O1232   1.257       .  A
C854        O863   1.258       .  A
C854       C1308   1.432       .  S
C855        O857   1.260       .  A
C855        C925   1.427       .  S
O857      Tb1231   2.348       .  S
O859        C860   1.269       .  A
C860        C934   1.484       .  S
C861        C937   1.483       .  S
C862       O1248   1.258       .  A
C862        C941   1.429       .  S
O864       C1246   1.263       .  A
O864      Tb1226   2.359       .  S
O865      Tb1226   2.334       .  S
C867        C869   1.529   1_556  S
C867        C871   1.527   1_556  S
C867        C870   1.529   1_556  S
C867       C1105   1.457       .  S
C868        C872   1.532       .  S
C868        C874   1.529       .  S
C868        C873   1.525       .  S
C868        C920   1.459       .  S
C869        C877   1.373       .  A
C869        C872   1.393       .  A
C870        C881   1.375       .  A
C870        C873   1.392       .  A
C871        C885   1.373       .  A
C871        C874   1.392       .  A
C872        C875   1.377       .  A
C873        C879   1.369       .  A
C874        C882   1.375       .  A
C875        N876   1.357       .  A
C875        H888   1.082       .  S
N876        C877   1.355       .  A
N876        C932   1.400       .  S
C877        H878   1.083   1_554  S
C879        N880   1.352       .  A
C879        H889   1.082       .  S
N880        C881   1.356       .  A
N880        C927   1.394       .  S
C881       H1079   1.083   1_554  S
C882        N883   1.355       .  A
C882        H884   1.083       .  S
N883        C885   1.354       .  A
N883        C930   1.396       .  S
C885        H886   1.082   1_554  S
H887       C1073   1.082       .  S
C890        C892   1.527       .  S
C890        C894   1.527       .  S
C890        C893   1.529       .  S
C890        C917   1.459       .  S
C891        C895   1.528       .  S
C891        C897   1.532       .  S
C891        C896   1.526       .  S
C891        C916   1.461       .  S
C892        C900   1.373       .  A
C892        C895   1.391       .  A
C893        C904   1.374       .  A
C893        C896   1.393       .  A
C894        C908   1.372       .  A
C894        C897   1.394       .  A
C895        C898   1.374       .  A
C896        C902   1.370       .  A
C897        C905   1.376       .  A
C898        N899   1.355       .  A
C898        H911   1.083       .  S
N899        C900   1.354       .  A
N899        C926   1.396       .  S
C900        H901   1.083       .  S
C902        N903   1.353       .  A
C902        H912   1.083       .  S
N903        C904   1.356       .  A
N903        C922   1.394       .  S
C904        H910   1.082       .  S
C905        N906   1.357       .  A
C905        H907   1.083       .  S
N906        C908   1.354       .  A
N906        C923   1.398       .  S
C908        H909   1.082       .  S
C913       C1059   1.461       .  S
C913        C914   1.201       .  T
C914        C915   1.405       .  S
C915        C916   1.201       .  T
C917        C918   1.200       .  T
C918        C919   1.403       .  S
C919        C920   1.200       .  T
C921        C922   1.200       .  T
C923        C924   1.202       .  T
C924       C1238   1.429       .  S
C925        C926   1.201       .  T
C927        C928   1.199       .  T
C929       C1212   1.426       .  S
C929        C930   1.201       .  T
C931        C932   1.204       .  T
C933        C934   1.344       .  D
C933       H1319   1.087   1_545  S
C934        H936   1.087       .  S
H935       C1317   1.086       .  S
C937        C938   1.348       .  D
C937        H939   1.087       .  S
C941        C942   1.203       .  T
C943        C944   1.200       .  T
C945        C946   1.202       .  T
C947        C948   1.205       .  T
C949        C950   1.202       .  T
C951        C952   1.204       .  T
C952        N970   1.399       .  S
C953        C954   1.200       .  T
C954        C955   1.403       .  S
C955        C956   1.200       .  T
C957        C958   1.201       .  T
C958        C959   1.404       .  S
C959        C960   1.201       .  T
C961        C963   1.532       .  S
C961        C965   1.530       .  S
C961        C964   1.531       .  S
C961       C1149   1.462       .  S
C962        C966   1.532       .  S
C962        C968   1.530       .  S
C962        C967   1.527       .  S
C962       C1145   1.458       .  S
C963        C971   1.374       .  A
C964        C975   1.376       .  A
C965        C979   1.375       .  A
C966        C969   1.378       .  A
C967        C973   1.372       .  A
C968        C976   1.376       .  A
C969        N970   1.357   1_556  A
C969        H982   1.083       .  S
C971        H972   1.083       .  S
C973        H983   1.082       .  S
N974        C975   1.357       .  A
N974       C1142   1.398       .  S
C975        H981   1.082       .  S
C976        N977   1.355   1_556  A
C976        H978   1.083       .  S
N977       C1140   1.397       .  S
C979        H980   1.083       .  S
C984        C986   1.527       .  S
C984        C988   1.527       .  S
C984        C987   1.526       .  S
C984       C1148   1.458       .  S
C985        C989   1.534       .  S
C985        C991   1.536       .  S
C985        C990   1.531       .  S
C985       C1152   1.461       .  S
C986        C994   1.373       .  A
C986        C989   1.391       .  A
C987        C998   1.372       .  A
C987        C990   1.393       .  A
C988       C1002   1.373       .  A
C988        C991   1.393       .  A
C989        C992   1.380       .  A
C990        C996   1.374       .  A
C991        C999   1.380       .  A
C992        N993   1.358       .  A
C992       H1005   1.083       .  S
N993        C994   1.354       .  A
N993       C1137   1.402       .  S
C994        H995   1.083       .  S
C996        N997   1.355       .  A
C996       H1006   1.082       .  S
N997        C998   1.354       .  A
N997       C1136   1.395       .  S
C998       H1004   1.083       .  S
C999       N1000   1.358       .  A
C999       H1001   1.083       .  S
N1000      C1002   1.354       .  A
N1000      C1134   1.402       .  S
C1002      H1003   1.083       .  S
C1007      O1009   1.256       .  A
C1007      C1143   1.436       .  S
Tb1008     O1222   2.361       .  S
Tb1008     O1415   2.340   1_545  S
Tb1008     O1398   2.357   1_545  S
Tb1008     O1019   2.335       .  S
Tb1008     O1029   2.343   1_545  S
O1009     Tb1013   2.351       .  S
O1010      C1021   1.259       .  A
O1010     Tb1397   2.348       .  S
C1011      O1016   1.261       .  A
C1011      O1032   1.261       .  A
C1011      C1120   1.425       .  S
O1012      C1028   1.260       .  A
Tb1013     O1394   2.359   1_545  S
Tb1013     O1016   2.327       .  S
Tb1013     O1407   2.348   1_545  S
Tb1013     O1025   2.389       .  S
O1014      C1404   1.262       .  A
O1014     Tb1392   2.351       .  S
O1015      C1018   1.261       .  A
O1017      C1027   1.275       .  A
C1018      O1031   1.262       .  A
C1018      C1141   1.429       .  S
C1020      O1398   1.261       .  A
C1020      O1029   1.258       .  A
C1020      C1505   1.429       .  S
C1021      O1023   1.260       .  A
C1021      C1123   1.430       .  S
O1023     Tb1397   2.354       .  S
O1025      C1026   1.281       .  A
C1026      C1130   1.486       .  S
C1027      C1125   1.483       .  S
C1028      O1414   1.258   1_554  A
C1028      C1139   1.428       .  S
O1030      C1412   1.262   1_556  A
O1030     Tb1200   2.357   1_556  S
O1031     Tb1392   2.339       .  S
C1033      O1048   1.263       .  A
C1033      O1035   1.260       .  A
C1033      C1138   1.435       .  S
Tb1034     O1440   2.358       .  S
Tb1034     O1441   2.333   1_545  S
Tb1034     O1424   2.351   1_545  S
Tb1034     O1050   2.375       .  S
Tb1034     O1045   2.334       .  S
Tb1034     O1038   2.349       .  S
Tb1034     O1055   2.341   1_545  S
O1035     Tb1039   2.345       .  S
O1036      C1047   1.258       .  A
O1036     Tb1423   2.343       .  S
C1037      O1042   1.263       .  A
C1037      O1058   1.263       .  A
C1037      C1113   1.429       .  S
O1038      C1054   1.260       .  A
Tb1039     O1420   2.345   1_545  S
Tb1039     O1043   2.373       .  S
Tb1039     O1048   2.359       .  S
Tb1039     O1042   2.332       .  S
Tb1039     O1433   2.351   1_545  S
Tb1039     O1051   2.337       .  S
Tb1039     O1425   2.339   1_545  S
O1040      C1430   1.257       .  A
O1040     Tb1418   2.349       .  S
O1041     Tb1423   2.337       .  S
O1043      C1053   1.277       .  A
C1044      O1057   1.260       .  A
C1044      C1135   1.425       .  S
C1046      O1424   1.261       .  A
C1046      O1055   1.259       .  A
C1046      C1500   1.426       .  S
C1047      O1049   1.261       .  A
C1047      C1117   1.428       .  S
O1049     Tb1423   2.354       .  S
O1051      C1052   1.273       .  A
C1052      C1126   1.484       .  S
C1053      C1129   1.492       .  S
C1054      O1440   1.262       .  A
C1054      C1133   1.435       .  S
O1056      C1438   1.258       .  A
O1056     Tb1418   2.363       .  S
O1057     Tb1418   2.324       .  S
C1059      C1061   1.528       .  S
C1059      C1063   1.524       .  S
C1059      C1062   1.528       .  S
C1060      C1064   1.533       .  S
C1060      C1066   1.529       .  S
C1060      C1065   1.528       .  S
C1060      C1112   1.461       .  S
C1061      C1069   1.372       .  A
C1061      C1064   1.395       .  A
C1062      C1073   1.373       .  A
C1062      C1065   1.393       .  A
C1063      C1077   1.370       .  A
C1063      C1066   1.391       .  A
C1064      C1067   1.377       .  A
C1065      C1071   1.372       .  A
C1066      C1074   1.375       .  A
C1067      N1068   1.357       .  A
C1067      H1080   1.082       .  S
N1068      C1069   1.354       .  A
N1068      C1124   1.399       .  S
C1069      H1070   1.083       .  S
C1071      N1072   1.353       .  A
C1071      H1081   1.083       .  S
N1072      C1073   1.355       .  A
N1072      C1119   1.395       .  S
C1074      N1075   1.355       .  A
C1074      H1076   1.083       .  S
N1075      C1077   1.352       .  A
N1075      C1122   1.394       .  S
C1077      H1078   1.082       .  S
C1082      C1084   1.529       .  S
C1082      C1086   1.530       .  S
C1082      C1085   1.531       .  S
C1082      C1109   1.460       .  S
C1083      C1087   1.529       .  S
C1083      C1089   1.531       .  S
C1083      C1088   1.527       .  S
C1083      C1108   1.457       .  S
C1084      C1092   1.374       .  A
C1084      C1087   1.391       .  A
C1085      C1096   1.376       .  A
C1085      C1088   1.392       .  A
C1086      C1100   1.373       .  A
C1086      C1089   1.394       .  A
C1087      C1090   1.375       .  A
C1088      C1094   1.372       .  A
C1089      C1097   1.377       .  A
C1090      N1091   1.355       .  A
C1090      H1103   1.083       .  S
N1091      C1092   1.354       .  A
N1091      C1118   1.398       .  S
C1092      H1093   1.083       .  S
C1094      N1095   1.353       .  A
C1094      H1104   1.082       .  S
N1095      C1096   1.357       .  A
N1095      C1114   1.398       .  S
C1096      H1102   1.082       .  S
C1097      N1098   1.356       .  A
C1097      H1099   1.083       .  S
N1098      C1100   1.355       .  A
N1098      C1115   1.399       .  S
C1100      H1101   1.082       .  S
C1105      C1106   1.199       .  T
C1106      C1107   1.401       .  S
C1107      C1108   1.199       .  T
C1109      C1110   1.201       .  T
C1110      C1111   1.404       .  S
C1111      C1112   1.201       .  T
C1113      C1114   1.202       .  T
C1115      C1116   1.204       .  T
C1116      C1430   1.431       .  S
C1117      C1118   1.202       .  T
C1119      C1120   1.200       .  T
C1121      C1404   1.423       .  S
C1121      C1122   1.199       .  T
C1123      C1124   1.203       .  T
C1125      C1126   1.348       .  D
C1125      H1511   1.086       .  S
C1126      H1128   1.086       .  S
H1127      C1509   1.087       .  S
C1129      C1130   1.348       .  D
C1129      H1131   1.086       .  S
C1133      C1134   1.206       .  T
C1135      C1136   1.200       .  T
C1137      C1138   1.206       .  T
C1139      C1140   1.202       .  T
C1141      C1142   1.202       .  T
C1143      C1144   1.207       .  T
C1145      C1146   1.200       .  T
C1146      C1147   1.402       .  S
C1147      C1148   1.200       .  T
C1149      C1150   1.202       .  T
C1150      C1151   1.405       .  S
C1151      C1152   1.202       .  T
C1153      C1155   1.530       .  S
C1153      C1157   1.527       .  S
C1153      C1156   1.529       .  S
C1153      C1341   1.460       .  S
C1154      C1158   1.533       .  S
C1154      C1160   1.530       .  S
C1154      C1159   1.527       .  S
C1154      C1337   1.457       .  S
C1155      C1163   1.373       .  A
C1155      C1350   1.394   1_554  A
C1156      C1167   1.375       .  A
C1156      C1351   1.392   1_554  A
C1157      C1171   1.373       .  A
C1157      C1352   1.390   1_554  A
C1158      C1347   1.393       .  A
C1158      C1161   1.379       .  A
C1159      C1348   1.391       .  A
C1159      C1165   1.372       .  A
C1160      C1349   1.391       .  A
C1160      C1168   1.376       .  A
C1161      N1162   1.357       .  A
C1161      H1174   1.083       .  S
N1162      C1355   1.356       .  A
N1162      C1528   1.401       .  S
C1163      N1354   1.355       .  A
C1163      H1164   1.083       .  S
C1165      N1358   1.353       .  A
C1165      H1175   1.082       .  S
N1166      C1357   1.354   1_554  A
N1166      C1167   1.355       .  A
N1166      C1334   1.396       .  S
C1167      H1173   1.082       .  S
C1168      N1169   1.356       .  A
C1168      H1170   1.083       .  S
N1169      C1363   1.355       .  A
N1169      C1332   1.399       .  S
C1171      N1361   1.355       .  A
C1171      H1172   1.083       .  S
C1176      C1178   1.527       .  S
C1176      C1180   1.528       .  S
C1176      C1179   1.526       .  S
C1176      C1340   1.457       .  S
C1177      C1181   1.533       .  S
C1177      C1183   1.536       .  S
C1177      C1182   1.531       .  S
C1177      C1344   1.459       .  S
C1178      C1186   1.373       .  A
C1178      C1181   1.391       .  A
C1179      C1190   1.372       .  A
C1179      C1182   1.392       .  A
C1180      C1194   1.373       .  A
C1180      C1183   1.393       .  A
C1181      C1184   1.380       .  A
C1182      C1188   1.374       .  A
C1183      C1191   1.380       .  A
C1184      N1185   1.357       .  A
C1184      H1197   1.083       .  S
N1185      C1186   1.354       .  A
N1185      C1329   1.401       .  S
C1186      H1187   1.083       .  S
C1188      N1189   1.355       .  A
C1188      H1198   1.082       .  S
N1189      C1190   1.354       .  A
N1189      C1328   1.396       .  S
C1190      H1196   1.083       .  S
C1191      N1192   1.358       .  A
C1191      H1193   1.083       .  S
N1192      C1194   1.355       .  A
N1192      C1326   1.402       .  S
C1194      H1195   1.083       .  S
C1199      O1406   1.260   1_554  A
C1199      O1201   1.256       .  A
C1199      C1335   1.436       .  S
Tb1200     O1408   2.373   1_554  S
Tb1200     O1211   2.333       .  S
Tb1200     O1396   2.340       .  S
Tb1200     O1221   2.339       .  S
O1201     Tb1205   2.352       .  S
O1202      C1213   1.259       .  A
C1203      O1208   1.260       .  A
C1203      O1224   1.262       .  A
C1203      C1312   1.423       .  S
O1204      C1220   1.260       .  A
O1204     Tb1392   2.353       .  S
Tb1205     O1401   2.385   1_554  S
Tb1205     O1406   2.370   1_554  S
Tb1205     O1208   2.325       .  S
Tb1205     O1217   2.387       .  S
O1207      C1210   1.261       .  A
O1209      C1219   1.275       .  A
O1209     Tb1397   2.363       .  S
C1210      O1223   1.262       .  A
C1210      C1333   1.427       .  S
C1212      O1221   1.259       .  A
C1213      O1215   1.261       .  A
C1213      C1315   1.431       .  S
O1214      C1391   1.263       .  A
O1214     Tb1397   2.357       .  S
O1216     Tb1392   2.334       .  S
O1217      C1218   1.280       .  A
C1218      C1322   1.484       .  S
C1219      C1317   1.485       .  S
C1220      C1331   1.430       .  S
C1225      O1240   1.263       .  A
C1225      O1227   1.261       .  A
C1225      C1330   1.433       .  S
Tb1226     O1242   2.371       .  S
Tb1226     O1237   2.336       .  S
Tb1226     O1230   2.348       .  S
Tb1226     O1247   2.344       .  S
O1227     Tb1231   2.342       .  S
O1228      C1239   1.258       .  A
C1229      O1234   1.262       .  A
C1229      O1250   1.263       .  A
C1229      C1305   1.428       .  S
O1230      C1246   1.261       .  A
Tb1231     O1235   2.369       .  S
Tb1231     O1240   2.356       .  S
Tb1231     O1234   2.332       .  S
Tb1231     O1243   2.341       .  S
O1235      C1245   1.275       .  A
C1236      O1249   1.260       .  A
C1236      C1327   1.426       .  S
C1238      O1247   1.259       .  A
C1239      O1241   1.262       .  A
C1239      C1309   1.425       .  S
O1243      C1244   1.274       .  A
C1244      C1318   1.486       .  S
C1245      C1321   1.490       .  S
C1246      C1325   1.436       .  S
C1251      C1253   1.529       .  S
C1251      C1255   1.525       .  S
C1251      C1254   1.526       .  S
C1251      C1489   1.459   1_554  S
C1252      C1256   1.532       .  S
C1252      C1258   1.529       .  S
C1252      C1257   1.528       .  S
C1252      C1304   1.459       .  S
C1253      C1261   1.373       .  A
C1253      C1256   1.394       .  A
C1254      C1265   1.372       .  A
C1254      C1257   1.392       .  A
C1255      C1269   1.371       .  A
C1255      C1258   1.391       .  A
C1256      C1259   1.376       .  A
C1257      C1263   1.372       .  A
C1258      C1266   1.374       .  A
C1259      N1260   1.357       .  A
C1259      H1272   1.082       .  S
N1260      C1261   1.355       .  A
N1260      C1316   1.399       .  S
C1261      H1262   1.083   1_554  S
C1263      N1264   1.354       .  A
C1263      H1273   1.082       .  S
N1264      C1265   1.354       .  A
N1264      C1311   1.394       .  S
C1265      H1463   1.083   1_554  S
C1266      N1267   1.355       .  A
C1266      H1268   1.083       .  S
N1267      C1269   1.353       .  A
N1267      C1314   1.394       .  S
C1269      H1270   1.082   1_554  S
H1271      C1457   1.083       .  S
C1274      C1276   1.527       .  S
C1274      C1278   1.529       .  S
C1274      C1277   1.531       .  S
C1274      C1301   1.459       .  S
C1275      C1279   1.528       .  S
C1275      C1281   1.532       .  S
C1275      C1280   1.527       .  S
C1275      C1300   1.457       .  S
C1276      C1284   1.372       .  A
C1276      C1279   1.391       .  A
C1277      C1288   1.376       .  A
C1277      C1280   1.392       .  A
C1278      C1292   1.373       .  A
C1278      C1281   1.394       .  A
C1279      C1282   1.375       .  A
C1280      C1286   1.372       .  A
C1281      C1289   1.377       .  A
C1282      N1283   1.355       .  A
C1282      H1295   1.083       .  S
N1283      C1284   1.353       .  A
N1283      C1310   1.396       .  S
C1284      H1285   1.083       .  S
C1286      N1287   1.353       .  A
C1286      H1296   1.082       .  S
N1287      C1288   1.357       .  A
N1287      C1306   1.397       .  S
C1288      H1294   1.083       .  S
C1289      N1290   1.356       .  A
C1289      H1291   1.083       .  S
N1290      C1292   1.355       .  A
N1290      C1307   1.400       .  S
C1292      H1293   1.083       .  S
C1297      C1443   1.458       .  S
C1297      C1298   1.199       .  T
C1298      C1299   1.401       .  S
C1299      C1300   1.199       .  T
C1301      C1302   1.200       .  T
C1302      C1303   1.403       .  S
C1303      C1304   1.200       .  T
C1305      C1306   1.202       .  T
C1307      C1308   1.204       .  T
C1309      C1310   1.200       .  T
C1311      C1312   1.199       .  T
C1313      C1314   1.199       .  T
C1315      C1316   1.204       .  T
C1317      C1318   1.348       .  D
C1318      H1320   1.086       .  S
C1321      C1322   1.347       .  D
C1321      H1323   1.086       .  S
C1325      C1326   1.207       .  T
C1327      C1328   1.201       .  T
C1329      C1330   1.205       .  T
C1331      C1332   1.203       .  T
C1333      C1334   1.201       .  T
C1335      C1336   1.207       .  T
C1336      N1354   1.403       .  S
C1337      C1338   1.199       .  T
C1338      C1339   1.401       .  S
C1339      C1340   1.199       .  T
C1341      C1342   1.201       .  T
C1342      C1343   1.403       .  S
C1343      C1344   1.201       .  T
C1345      C1347   1.531       .  S
C1345      C1349   1.529       .  S
C1345      C1348   1.531       .  S
C1345      C1533   1.461       .  S
C1346      C1350   1.536       .  S
C1346      C1352   1.530       .  S
C1346      C1351   1.528       .  S
C1346      C1529   1.459       .  S
C1347      C1355   1.373       .  A
C1348      C1359   1.376       .  A
C1349      C1363   1.374       .  A
C1350      C1353   1.380       .  A
C1351      C1357   1.373       .  A
C1352      C1360   1.377       .  A
C1353      N1354   1.358   1_556  A
C1353      H1366   1.083       .  S
C1355      H1356   1.082       .  S
C1357      H1367   1.083       .  S
N1358      C1359   1.357       .  A
N1358      C1526   1.398       .  S
C1359      H1365   1.083       .  S
C1360      N1361   1.356   1_556  A
C1360      H1362   1.083       .  S
N1361      C1524   1.399       .  S
C1363      H1364   1.082       .  S
C1368      C1370   1.526       .  S
C1368      C1372   1.528       .  S
C1368      C1371   1.528       .  S
C1368      C1532   1.459       .  S
C1369      C1373   1.530       .  S
C1369      C1375   1.532       .  S
C1369      C1374   1.526       .  S
C1369      C1536   1.461       .  S
C1370      C1378   1.372       .  A
C1370      C1373   1.391       .  A
C1371      C1382   1.374       .  A
C1371      C1374   1.393       .  A
C1372      C1386   1.372       .  A
C1372      C1375   1.395       .  A
C1373      C1376   1.376       .  A
C1374      C1380   1.370       .  A
C1375      C1383   1.376       .  A
C1376      N1377   1.356       .  A
C1376      H1389   1.083       .  S
N1377      C1378   1.353       .  A
N1377      C1521   1.397       .  S
C1378      H1379   1.082       .  S
C1380      N1381   1.353       .  A
C1380      H1390   1.082       .  S
N1381      C1382   1.355       .  A
N1381      C1520   1.394       .  S
C1382      H1388   1.083       .  S
C1383      N1384   1.356       .  A
C1383      H1385   1.083       .  S
N1384      C1386   1.355       .  A
N1384      C1518   1.398       .  S
C1386      H1387   1.083       .  S
C1391      O1393   1.261       .  A
C1391      C1527   1.434       .  S
Tb1392     O1403   2.331       .  S
Tb1392     O1413   2.334       .  S
O1393     Tb1397   2.341       .  S
O1394      C1405   1.260       .  A
C1395      O1400   1.261       .  A
C1395      O1416   1.261       .  A
C1395      C1504   1.424       .  S
O1396      C1412   1.260       .  A
Tb1397     O1400   2.329       .  S
Tb1397     O1409   2.332       .  S
O1399      C1402   1.262       .  A
O1401      C1411   1.281       .  A
C1402      O1415   1.263       .  A
C1402      C1525   1.430       .  S
C1404      O1413   1.257       .  A
C1405      O1407   1.257       .  A
C1405      C1507   1.430       .  S
O1409      C1410   1.274       .  A
C1410      C1514   1.490       .  S
C1411      C1509   1.485       .  S
C1412      C1523   1.430       .  S
C1417      O1432   1.257       .  A
C1417      O1419   1.261       .  A
C1417      C1522   1.427       .  S
Tb1418     O1434   2.394       .  S
Tb1418     O1429   2.380       .  S
Tb1418     O1422   2.346       .  S
Tb1418     O1439   2.362       .  S
O1419     Tb1423   2.354       .  S
O1420      C1431   1.259       .  A
C1421      O1426   1.261       .  A
C1421      O1442   1.261       .  A
C1421      C1497   1.424       .  S
O1422      C1438   1.255       .  A
Tb1423     O1427   2.342       .  S
Tb1423     O1432   2.341       .  S
Tb1423     O1426   2.334       .  S
Tb1423     O1435   2.344       .  S
O1427      C1437   1.272       .  A
C1428      O1441   1.261       .  A
C1428      C1519   1.424       .  S
C1430      O1439   1.258       .  A
C1431      O1433   1.260       .  A
C1431      C1501   1.426       .  S
O1435      C1436   1.271       .  A
C1436      C1510   1.486       .  S
C1437      C1513   1.483       .  S
C1438      C1517   1.429       .  S
C1443      C1445   1.529       .  S
C1443      C1447   1.528       .  S
C1443      C1446   1.529       .  S
C1444      C1448   1.531       .  S
C1444      C1450   1.530       .  S
C1444      C1449   1.526       .  S
C1444      C1496   1.459       .  S
C1445      C1453   1.373       .  A
C1445      C1448   1.393       .  A
C1446      C1457   1.375       .  A
C1446      C1449   1.392       .  A
C1447      C1461   1.374       .  A
C1447      C1450   1.393       .  A
C1448      C1451   1.376       .  A
C1449      C1455   1.370       .  A
C1450      C1458   1.376       .  A
C1451      N1452   1.356       .  A
C1451      H1464   1.082       .  S
N1452      C1453   1.355       .  A
N1452      C1508   1.399       .  S
C1453      H1454   1.083       .  S
C1455      N1456   1.352       .  A
C1455      H1465   1.082       .  S
N1456      C1457   1.356       .  A
N1456      C1503   1.395       .  S
C1458      N1459   1.355       .  A
C1458      H1460   1.083       .  S
N1459      C1461   1.354       .  A
N1459      C1506   1.399       .  S
C1461      H1462   1.082       .  S
C1466      C1468   1.527       .  S
C1466      C1470   1.528       .  S
C1466      C1469   1.529       .  S
C1466      C1493   1.459       .  S
C1467      C1471   1.527       .  S
C1467      C1473   1.531       .  S
C1467      C1472   1.525       .  S
C1467      C1492   1.459       .  S
C1468      C1476   1.372       .  A
C1468      C1471   1.392       .  A
C1469      C1480   1.375       .  A
C1469      C1472   1.392       .  A
C1470      C1484   1.371       .  A
C1470      C1473   1.394       .  A
C1471      C1474   1.374       .  A
C1472      C1478   1.369       .  A
C1473      C1481   1.375       .  A
C1474      N1475   1.354       .  A
C1474      H1487   1.083       .  S
N1475      C1476   1.354       .  A
N1475      C1502   1.396       .  S
C1476      H1477   1.083       .  S
C1478      N1479   1.352       .  A
C1478      H1488   1.083       .  S
N1479      C1480   1.356       .  A
N1479      C1498   1.394       .  S
C1480      H1486   1.082       .  S
C1481      N1482   1.356       .  A
C1481      H1483   1.083       .  S
N1482      C1484   1.354       .  A
N1482      C1499   1.396       .  S
C1484      H1485   1.082       .  S
C1489      C1490   1.200       .  T
C1490      C1491   1.402       .  S
C1491      C1492   1.200       .  T
C1493      C1494   1.200       .  T
C1494      C1495   1.403       .  S
C1495      C1496   1.200       .  T
C1497      C1498   1.199       .  T
C1499      C1500   1.201       .  T
C1501      C1502   1.201       .  T
C1503      C1504   1.200       .  T
C1505      C1506   1.203       .  T
C1507      C1508   1.203       .  T
C1509      C1510   1.345       .  D
C1510      H1512   1.087       .  S
C1513      C1514   1.349       .  D
C1513      H1515   1.087       .  S
C1517      C1518   1.202       .  T
C1519      C1520   1.200       .  T
C1521      C1522   1.201       .  T
C1523      C1524   1.203       .  T
C1525      C1526   1.203       .  T
C1527      C1528   1.205       .  T
C1529      C1530   1.200       .  T
C1530      C1531   1.403       .  S
C1531      C1532   1.200       .  T
C1533      C1534   1.201       .  T
C1534      C1535   1.405       .  S
C1535      C1536   1.201       .  T
