geometry optimzed in LAMMPS
_audit_creation_date              2020-11-30 
_audit_creation_method            'lammps2cif' 
_symmetry_space_group_name_H-M    'P1' 
_symmetry_Int_Tables_number       1 
_symmetry_cell_setting            triclinic 
loop_ 
_symmetry_equiv_pos_as_xyz 
  x,y,z 
_cell_length_a                    37.49578457 
_cell_length_b                    35.44324212512705 
_cell_length_c                    33.824105303873516 
_cell_angle_alpha                 90.6593086717996 
_cell_angle_beta                  90.71755900876313 
_cell_angle_gamma                 124.79261247686078 
loop_ 
_atom_site_label 
_atom_site_type_symbol 
_atom_site_fract_x 
_atom_site_fract_y 
_atom_site_fract_z 
_atom_site_charge 
C1          C  0.33051501  0.15924617  0.44831896     0.31000
C2          C  0.32929364  0.15096580  0.03068170     0.31000
C3          C  0.34242638  0.12949877  0.46931017    -0.05200
C4          C  0.36390963  0.20713084  0.46604455    -0.06000
C5          C  0.28816913  0.14492767  0.46723235    -0.05900
C6          C  0.34126583  0.12124483  0.00982920    -0.05200
C7          C  0.35926295  0.19846607  0.01171474    -0.06000
C8          C  0.28494505  0.13402825  0.01218578    -0.05900
C9          C  0.37296189  0.11474218  0.02082898    -0.31300
N10         N  0.37887032  0.10136377  0.49157452     0.15200
C11         C  0.36446624  0.11048184  0.45852849    -0.31300
H12         H  0.37348443  0.10792492  0.42889975     0.17200
C13         C  0.38802244  0.24379031  0.02372488    -0.30300
N14         N  0.40457783  0.26980992  0.99138021     0.13900
C15         C  0.39052859  0.25005886  0.45054281    -0.30300
C16         C  0.24337031  0.11442257  0.02529789    -0.30500
N17         N  0.22054157  0.11610293  0.48365830     0.14400
H18         H  0.23268630  0.10826689  0.05556421     0.17100
C19         C  0.24679447  0.12615268  0.45287232    -0.30600
H20         H  0.23613928  0.11898533  0.42212483     0.17100
H21         H  0.39591371  0.25822687  0.41953859     0.17100
H22         H  0.38499870  0.11692583  0.05057303     0.17200
H23         H  0.39552921  0.25813116  0.05352007     0.17100
C24         C  0.31520956  0.15271375  0.19973673     0.31000
C25         C  0.31497841  0.15993314  0.27943689     0.31000
C26         C  0.34599330  0.14542295  0.22256067    -0.05200
C27         C  0.32719415  0.19943572  0.21604591    -0.06000
C28         C  0.27120694  0.11915808  0.21873536    -0.05900
C29         C  0.34637051  0.14926603  0.26308541    -0.05200
C30         C  0.32827917  0.20434191  0.25709872    -0.06000
C31         C  0.27137437  0.12288851  0.25965057    -0.05900
C32         C  0.37069013  0.13427077  0.27805639    -0.31300
N33         N  0.38417561  0.12109712  0.24734240     0.15200
C34         C  0.36922995  0.12776285  0.21326597    -0.31300
H35         H  0.37181130  0.11681362  0.18403007     0.17200
C36         C  0.34797815  0.25124961  0.26481737    -0.30300
N37         N  0.35632446  0.27321780  0.22977081     0.13900
C38         C  0.34351216  0.24165520  0.20018230    -0.30300
C39         C  0.22883724  0.09736853  0.27143182    -0.30500
N40         N  0.20308221  0.07846407  0.23867017     0.14400
H41         H  0.21739983  0.09487888  0.30118221     0.17100
C42         C  0.22822371  0.09246204  0.20638659    -0.30600
H43         H  0.21560635  0.08607784  0.17627547     0.17100
H44         H  0.34888768  0.24977660  0.16908338     0.17100
H45         H  0.37627065  0.13060532  0.30874586     0.17200
H46         H  0.35941137  0.26894198  0.29318335     0.17100
O47         O  0.07147499  0.98546574  0.48023276    -0.79200
O48         O  0.46594057  0.06845418  0.45313771    -0.79200
O49         O  0.07367127  0.07921091  0.37574742    -0.79200
O50         O  0.45157810  0.47461632  0.02294386    -0.79200
O51         O  0.03629162  0.10105502  0.40667908    -0.79300
O52         O  0.04702028  0.51965342  0.02754658    -0.79200
O53         O  0.41736723  0.99527612  0.46113483    -0.79200
O54         O  0.08886683  0.04541211  0.44387063    -0.79200
C55         C  0.09980127  0.02649604  0.46971608     1.10500
C56         C  0.42854548  0.03646200  0.46399553     1.10400
C57         C  0.06991331  0.11082197  0.38866616     1.10500
C58         C  0.48763051  0.48828252  0.03975629     1.10400
O59         O  0.50876626  0.44701072  0.49543392    -0.79200
O60         O  0.50805316  0.06450013  0.34418135    -0.79300
O61         O  0.09439753  0.51476225  0.38176365    -0.79200
O62         O  0.41788734  0.45256614  0.41049790    -0.79200
O63         O  0.43443402  0.52138036  0.39606819    -0.79200
O64         O  0.05370219  0.47076175  0.43116799    -0.79200
O65         O  0.45606084  0.41982837  0.45260784    -0.79200
O66         O  0.00637942  0.98685534  0.34676614    -0.79200
Co67       Co  0.04970771  0.50920881  0.47585820     1.51500
Co68       Co  0.48850992  0.06300456  0.40175344     1.51700
Co69       Co  0.04285549  0.01454422  0.39686464     1.51600
Co70       Co  0.44740736  0.46897316  0.46260588     1.51500
O71         O  0.99362348  0.00912320  0.42640512    -1.41100
C72         C  0.47541729  0.41264099  0.47882299     1.10400
C73         C  0.99788819  0.00923792  0.32411345     1.10500
C74         C  0.07831920  0.47839388  0.40165129     1.10500
C75         C  0.40838874  0.47786390  0.39446668     1.10400
O76         O  0.06782675  0.00073109  0.21547086    -0.79200
O77         O  0.46636989  0.07874728  0.18326420    -0.79200
O78         O  0.03287904  0.09027037  0.15764251    -0.79200
O79         O  0.49622279  0.53525169  0.26751950    -0.79200
O80         O  0.97853507  0.05936641  0.11567361    -0.79300
O81         O  0.03820744  0.55640824  0.27663264    -0.79200
O82         O  0.43108900  0.03555401  0.23572618    -0.79200
O83         O  0.07684273  0.06584440  0.20064693    -0.79200
C84         C  0.09047105  0.04429967  0.21662414     1.10500
C85         C  0.44286841  0.06985998  0.21399913     1.10400
C86         C  0.01175970  0.09506472  0.13151477     1.10500
C87         C  0.50444311  0.51268207  0.29033042     1.10400
O88         O  0.45118196  0.41245526  0.21093423    -0.79200
O89         O  0.47837111  0.00790229  0.10007554    -0.79300
O90         O  0.06856145  0.00616969  0.13668269    -0.79200
O91         O  0.40044676  0.45374971  0.18560249    -0.79200
O92         O  0.40004983  0.48629158  0.13001556    -0.79200
O93         O  0.05188623  0.47708623  0.20409509    -0.79200
O94         O  0.42641810  0.43893517  0.25248104    -0.79200
O95         O  0.02304822  0.03069905  0.09068580    -0.79200
Co96       Co  0.04652715  0.52040048  0.23604802     1.51500
Co97       Co  0.48307331  0.04709949  0.14374305     1.51700
Co98       Co  0.04680355  0.04556729  0.14859516     1.51600
Co99       Co  0.45339392  0.49921270  0.22298657     1.51500
O100        O  0.99160660  0.99651530  0.17658472    -1.41100
C101        C  0.42388613  0.40477650  0.23649625     1.10400
C102        C  0.98793645  0.99696060  0.07408190     1.10500
C103        C  0.08201828  0.48891327  0.18110175     1.10500
C104        C  0.37980332  0.45518235  0.15547127     1.10400
C105        C  0.17782378  0.35329638  0.34561159     0.31000
C106        C  0.17723202  0.36390079  0.42498826     0.31000
C107        C  0.15087170  0.37058362  0.36010198    -0.05200
C108        C  0.16108054  0.30939021  0.36966278    -0.06000
C109        C  0.22293319  0.38811144  0.36508409    -0.05900
C110        C  0.15020501  0.37523051  0.40064404    -0.05200
C111        C  0.16086619  0.31529272  0.41026995    -0.06000
C112        C  0.22247363  0.39313839  0.40644965    -0.05900
C113        C  0.13685096  0.40349521  0.40788263    -0.31300
N114        N  0.12899451  0.41603384  0.37288108     0.15200
C115        C  0.13894609  0.39755551  0.34342618    -0.31300
H116        H  0.13983862  0.40521556  0.31237648     0.17200
C117        C  0.14332731  0.27316893  0.42699308    -0.30300
N118        N  0.13279670  0.24146642  0.39801193     0.15900
C119        C  0.14372576  0.26313336  0.36268626    -0.30300
C120        C  0.26205618  0.40414444  0.42075697    -0.30500
N121        N  0.28725804  0.40950616  0.39024510     0.14400
H122        H  0.27075878  0.40435670  0.45140458     0.17100
C123        C  0.26348733  0.39813320  0.35634384    -0.30600
H124        H  0.27329205  0.39261747  0.32808200     0.17100
H125        H  0.13723315  0.24611017  0.33412871     0.17100
H126        H  0.13656369  0.41724698  0.43650497     0.17200
H127        H  0.13686276  0.26549215  0.45808703     0.17100
C128        C  0.14636063  0.34382419  0.09479547     0.31000
C129        C  0.15360478  0.34171007  0.17454810     0.31000
C130        C  0.14229388  0.37789542  0.11851870    -0.05200
C131        C  0.11187318  0.29704384  0.11325166    -0.06000
C132        C  0.18964378  0.35330585  0.11049983    -0.05900
C133        C  0.14572923  0.37681282  0.15902090    -0.05200
C134        C  0.11601720  0.29626435  0.15469017    -0.06000
C135        C  0.19325806  0.35203213  0.15126331    -0.05900
C136        C  0.13948937  0.40859931  0.17473767    -0.31300
N137        N  0.13286191  0.42901169  0.14436740     0.15200
C138        C  0.13483724  0.41069831  0.10988899    -0.31300
H139        H  0.12964170  0.41948463  0.08080217     0.17200
C140        C  0.09900862  0.25124260  0.16379819    -0.30300
N141        N  0.08172083  0.22433155  0.13100291     0.13900
C142        C  0.09161420  0.25180455  0.09970133    -0.30300
C143        C  0.23656047  0.37139015  0.16025142    -0.30500
N144        N  0.25938433  0.38519570  0.12628062     0.14400
H145        H  0.25100972  0.37897614  0.18956839     0.17100
C146        C  0.23098427  0.37394051  0.09581889    -0.30600
H147        H  0.24057375  0.38364472  0.06547117     0.17100
H148        H  0.08965420  0.24039617  0.06946358     0.17100
H149        H  0.13934384  0.41599591  0.20583797     0.17200
H150        H  0.10359012  0.23924489  0.19141379     0.17100
C151        C  0.19630188  0.38288531  0.23706378    -0.12400
C152        C  0.15915386  0.34409370  0.21911473     0.09800
C153        C  0.12724436  0.30998251  0.24348668    -0.12400
C154        C  0.13484843  0.31176384  0.28398169    -0.12400
C155        C  0.17423778  0.34801840  0.30130641     0.09800
C156        C  0.20410144  0.38461262  0.27755463    -0.12400
H157        H  0.21927362  0.41217836  0.21971629     0.13700
H158        H  0.09547103  0.28309463  0.23208179     0.13700
H159        H  0.10890881  0.28593888  0.30202671     0.13700
H160        H  0.23244003  0.41564884  0.29028566     0.13700
C161        C  0.17926048  0.39187861  0.03524544    -0.12400
C162        C  0.14511406  0.35050821  0.05117196     0.09800
C163        C  0.11105183  0.31791269  0.02590296    -0.12400
C164        C  0.13446561  0.33841389  0.48736653    -0.12400
C165        C  0.17374146  0.36964096  0.46878364     0.09800
C166        C  0.20718858  0.40760503  0.49099832    -0.12400
H167        H  0.20317554  0.42031592  0.05424462     0.13700
H168        H  0.08089140  0.28936724  0.03705307     0.13700
H169        H  0.10617172  0.31201690  0.47033361     0.13700
H170        H  0.23547674  0.43600512  0.47713117     0.13700
C171        C  0.02700522  0.14223802  0.12029844    -0.15500
C172        C  0.06798210  0.17744606  0.13021501    -0.30700
H173        H  0.00460673  0.14854321  0.10646031     0.13500
H174        H  0.08954278  0.17027751  0.14468703     0.14100
C175        C  0.30608094  0.41574852  0.12343185    -0.15500
C176        C  0.33251642  0.41964010  0.15273482    -0.30700
H177        H  0.31982892  0.43719261  0.09767419     0.13500
H178        H  0.31858550  0.39665792  0.17747017     0.14100
C179        C  0.12222199  0.46192062  0.14749794    -0.15500
C180        C  0.09634966  0.45839457  0.17608641    -0.30700
H181        H  0.13250749  0.48742324  0.12465357     0.13500
H182        H  0.08359029  0.43026910  0.19666655     0.14100
C183        C  0.10392349  0.16032173  0.38185307    -0.15500
C184        C  0.10558338  0.19273577  0.40486475    -0.30700
H185        H  0.12620055  0.17011084  0.35766020     0.13500
H186        H  0.08494350  0.18176014  0.43055242     0.14100
C187        C  0.36416290  0.45702323  0.37799696    -0.15500
C188        C  0.33009452  0.42002826  0.39496757    -0.30700
H189        H  0.35855644  0.47670174  0.35763831     0.13500
H190        H  0.33584826  0.40371287  0.41882490     0.14100
C191        C  0.11623486  0.44720448  0.36895418    -0.15500
C192        C  0.08689693  0.44343168  0.39381892    -0.30700
H193        H  0.13186588  0.47450466  0.34771740     0.13500
H194        H  0.07109398  0.41433251  0.41333975     0.14100
C195        C  0.40407694  0.09668903  0.25013086    -0.15500
C196        C  0.42972563  0.10079252  0.22118875    -0.30700
H197        H  0.39589233  0.07306410  0.27406158     0.13500
H198        H  0.43889322  0.12656404  0.19897465     0.14100
C199        C  0.38379529  0.32190896  0.22234289    -0.15500
C200        C  0.39066350  0.35595197  0.24702169    -0.30700
H201        H  0.39993340  0.33151982  0.19404077     0.13500
H202        H  0.37321763  0.34806752  0.27445258     0.14100
C203        C  0.15670708  0.05090500  0.23724310    -0.15500
C204        C  0.13545523  0.07069563  0.23220845    -0.30700
H205        H  0.13979479  0.01394223  0.23329071     0.13500
H206        H  0.15362359  0.10797294  0.23369021     0.14100
C207        C  0.39678548  0.04682576  0.47582108    -0.15500
C208        C  0.40883343  0.08806944  0.49100137    -0.30700
H209        H  0.36267357  0.02105157  0.46913005     0.13500
H210        H  0.44248937  0.11343252  0.49963921     0.14100
C211        C  0.42276925  0.32899844  0.47205692    -0.15500
C212        C  0.45814116  0.36491852  0.49066480    -0.30700
H213        H  0.40834657  0.33539869  0.44721608     0.13500
H214        H  0.40123838  0.33190286  0.95430011     0.14100
C215        C  0.14451070  0.05236578  0.48740443    -0.15500
C216        C  0.17489334  0.09624830  0.47826047    -0.30700
H217        H  0.15383554  0.03380773  0.50515124     0.13500
H218        H  0.16583274  0.11368776  0.45862706     0.14100
C219        C  0.31545922  0.19137818  0.34677471    -0.12400
C220        C  0.31274898  0.15735070  0.32334685     0.09800
C221        C  0.30706066  0.11870274  0.34148568    -0.12400
C222        C  0.31463021  0.11956865  0.38172932    -0.12400
C223        C  0.32499633  0.15780774  0.40446061     0.09800
C224        C  0.32032642  0.19084867  0.38718785    -0.12400
H225        H  0.31261721  0.21752402  0.33443206     0.13700
H226        H  0.29922114  0.08893537  0.32407014     0.13700
H227        H  0.31110577  0.08996908  0.39486422     0.13700
H228        H  0.32042296  0.21644331  0.40509408     0.13700
C229        C  0.35879533  0.18366310  0.13887994    -0.12400
C230        C  0.31980551  0.14930478  0.15617572     0.09800
C231        C  0.29046249  0.10930703  0.13379575    -0.12400
C232        C  0.29556989  0.10845216  0.09332799    -0.12400
C233        C  0.32958448  0.14780191  0.07492556     0.09800
C234        C  0.36396324  0.18233274  0.09862236    -0.12400
H235        H  0.38537246  0.21131450  0.15663675     0.13700
H236        H  0.26423238  0.07838561  0.14719730     0.13700
H237        H  0.27207995  0.07776617  0.07622188     0.13700
H238        H  0.39525083  0.20753155  0.08663550     0.13700
C239        C  0.32556969  0.15104598  0.95054965     0.31000
C240        C  0.33277369  0.16570100  0.52827035     0.31000
C241        C  0.34045313  0.12223381  0.96821030    -0.05200
C242        C  0.35752532  0.19810659  0.97057384    -0.06000
C243        C  0.28306337  0.13374013  0.97133263    -0.05900
C244        C  0.34440736  0.13329804  0.51060459    -0.05200
C245        C  0.36435702  0.21180671  0.50680157    -0.06000
C246        C  0.28816712  0.14743909  0.50785066    -0.05900
C247        C  0.36852981  0.11694659  0.52342994    -0.31300
N248        N  0.39175080  0.11281891  0.98788874     0.15200
C249        C  0.37386119  0.11931360  0.95631867    -0.31300
H250        H  0.38720261  0.12573874  0.92695209     0.17200
C251        C  0.38912774  0.25929456  0.51454143    -0.30300
N252        N  0.40543194  0.28178107  0.48001482     0.13900
C253        C  0.38613919  0.24259030  0.95855323    -0.30300
C254        C  0.24509221  0.12894124  0.51769212    -0.30500
N255        N  0.21661673  0.10186500  0.99343283     0.14400
H256        H  0.23250693  0.12493716  0.54711008     0.17100
C257        C  0.24043010  0.11362533  0.96014475    -0.30600
H258        H  0.22737994  0.10565105  0.93018150     0.17100
H259        H  0.39333140  0.25435761  0.92851341     0.17100
H260        H  0.38031822  0.11932118  0.55339289     0.17200
H261        H  0.39134594  0.27641838  0.54205488     0.17100
C262        C  0.32187221  0.17004630  0.69956343     0.31000
C263        C  0.32692921  0.16565485  0.77949109     0.31000
C264        C  0.35091630  0.15586216  0.71498657    -0.05200
C265        C  0.33950017  0.21531781  0.72251415    -0.06000
C266        C  0.27858821  0.13678327  0.71988400    -0.05900
C267        C  0.35394603  0.15315841  0.75559284    -0.05200
C268        C  0.34317902  0.21371648  0.76331510    -0.06000
C269        C  0.28118618  0.13406340  0.76058663    -0.05900
C270        C  0.38244547  0.14036484  0.76183481    -0.31300
N271        N  0.39613737  0.13593482  0.72597289     0.15200
C272        C  0.37728764  0.14569909  0.69749175    -0.31300
H273        H  0.38192792  0.14460715  0.66599897     0.17200
C274        C  0.36554359  0.25883796  0.77748755    -0.30300
N275        N  0.37385516  0.28695093  0.74671560     0.13900
C276        C  0.35712593  0.26028321  0.71319646    -0.30300
C277        C  0.23915025  0.10501330  0.77382084    -0.30500
N278        N  0.21141317  0.09144318  0.74222822     0.14400
H279        H  0.22943859  0.09660767  0.80420863     0.17100
C280        C  0.23512612  0.11130432  0.70945527    -0.30600
H281        H  0.22132788  0.10872584  0.68042260     0.17100
H282        H  0.35857052  0.27264123  0.68378809     0.17100
H283        H  0.39292599  0.13530433  0.78997569     0.17200
H284        H  0.37719214  0.27077351  0.80752233     0.17100
O285        O  0.07837182  0.01228298  0.98151433    -0.79200
O286        O  0.47704360  0.07617110  0.96027961    -0.79200
O287        O  0.05822253  0.07966146  0.86426373    -0.79200
O288        O  0.47077378  0.48196867  0.52043359    -0.79200
O289        O  0.03078248  0.09589941  0.91137803    -0.79300
O290        O  0.04512579  0.53864422  0.52420454    -0.79200
O291        O  0.42182717  0.00688358  0.97598114    -0.79200
O292        O  0.08453452  0.05690041  0.93170045    -0.79200
C293        C  0.10115470  0.04813973  0.96090876     1.10500
C294        C  0.44226345  0.05015577  0.97861394     1.10400
C295        C  0.05815583  0.10936868  0.88410267     1.10500
C296        C  0.50678561  0.51520895  0.53614679     1.10400
O297        O  0.50000474  0.41531821  0.98800825    -0.79200
O298        O  0.48778558  0.04382735  0.84800171    -0.79300
O299        O  0.08964052  0.50218391  0.90296066    -0.79200
O300        O  0.41556868  0.47075721  0.94800593    -0.79200
O301        O  0.42897954  0.45689516  0.88951364    -0.79200
O302        O  0.02703768  0.44823438  0.92726436    -0.79200
O303        O  0.44955534  0.42149226  0.96100497    -0.79200
O304        O  0.00015533  0.98741736  0.84371689    -0.79200
Co305      Co  0.03507919  0.48423176  0.97645412     1.51500
Co306      Co  0.48436249  0.05894753  0.90688136     1.51700
Co307      Co  0.03336364  0.02144370  0.89137649     1.51600
Co308      Co  0.47461973  0.49061781  0.96978990     1.51500
O309        O  0.98000525  0.99434605  0.92662130    -1.41100
C310        C  0.46135770  0.39646165  0.97497849     1.10400
C311        C  0.98450019  0.00555960  0.82500080     1.10500
C312        C  0.05946173  0.46003841  0.90650750     1.10500
C313        C  0.40181436  0.45217760  0.91389506     1.10400
O314        O  0.07131736  0.01222589  0.71599576    -0.79200
O315        O  0.45918200  0.07437739  0.68578370    -0.79200
O316        O  0.05489519  0.11295042  0.64825843    -0.79200
O317        O  0.52094323  0.53838413  0.75948186    -0.79200
O318        O  0.00411098  0.09046095  0.60321841    -0.79300
O319        O  0.02976721  0.48064802  0.77463737    -0.79200
O320        O  0.41934935  0.01866989  0.72476587    -0.79200
O321        O  0.08502338  0.07834091  0.69915509    -0.79200
C322        C  0.09758829  0.05575894  0.71488430     1.10500
C323        C  0.43389544  0.05847843  0.71413665     1.10400
C324        C  0.03800250  0.12237963  0.62085673     1.10500
C325        C  0.53174011  0.51556654  0.77820038     1.10400
O326        O  0.48174196  0.42540933  0.68957540    -0.79200
O327        O  0.47321283  0.00449458  0.60156073    -0.79300
O328        O  0.06662023  0.00834756  0.64065742    -0.79200
O329        O  0.42321383  0.46038768  0.67923587    -0.79200
O330        O  0.41837111  0.50202358  0.63382283    -0.79200
O331        O  0.05251035  0.46810836  0.66092508    -0.79200
O332        O  0.45536042  0.44083703  0.73888078    -0.79200
O333        O  0.03707324  0.04410877  0.58799807    -0.79200
Co334      Co  0.04013169  0.47632430  0.71503487     1.51500
Co335      Co  0.46488061  0.03529195  0.64763150     1.51700
Co336      Co  0.05579091  0.05773742  0.64692573     1.51600
Co337      Co  0.47603454  0.50360082  0.71725768     1.51500
O338        O  0.99670452  0.02114598  0.67816344    -1.41100
C339        C  0.45405193  0.41145747  0.71596360     1.10400
C340        C  0.00105306  0.01516136  0.57016726     1.10500
C341        C  0.08889675  0.49760907  0.64702188     1.10500
C342        C  0.40063266  0.46567052  0.65376210     1.10400
C343        C  0.17985972  0.35718181  0.84856726     0.31000
C344        C  0.16607704  0.35759195  0.92715189     0.31000
C345        C  0.15155461  0.37416976  0.86098545    -0.05200
C346        C  0.15743800  0.30978300  0.86874533    -0.06000
C347        C  0.22182864  0.38769400  0.87481489    -0.05900
C348        C  0.14403942  0.37285955  0.90081286    -0.05200
C349        C  0.15162525  0.31121129  0.90911689    -0.06000
C350        C  0.21390629  0.38797334  0.91528842    -0.05900
C351        C  0.12105449  0.39133461  0.90743580    -0.31300
N352        N  0.11468949  0.40514893  0.87254183     0.15200
C353        C  0.13388110  0.39570281  0.84380132    -0.31300
H354        H  0.13638351  0.40542232  0.81325693     0.17200
C355        C  0.13062070  0.26769265  0.92292568    -0.30300
N356        N  0.12107893  0.23867076  0.89228747     0.15900
C357        C  0.13756320  0.26352347  0.85872345    -0.30300
C358        C  0.25088537  0.39983591  0.93596704    -0.30500
N359        N  0.28185847  0.40834486  0.91053904     0.14400
H360        H  0.25421550  0.39891705  0.96771183     0.17100
C361        C  0.26408585  0.39886664  0.87323808    -0.30600
H362        H  0.27967367  0.39756844  0.84710459     0.17100
H363        H  0.13289935  0.24894685  0.82924685     0.17100
H364        H  0.11255647  0.39764869  0.93611062     0.17200
H365        H  0.12073978  0.25695693  0.95287352     0.17100
C366        C  0.17180022  0.36702720  0.59544443     0.31000
C367        C  0.17909113  0.36268476  0.67522334     0.31000
C368        C  0.17225712  0.40377253  0.62002549    -0.05200
C369        C  0.13545495  0.32145392  0.61368951    -0.06000
C370        C  0.21307580  0.37143711  0.61040083    -0.05900
C371        C  0.17602774  0.40136997  0.66086480    -0.05200
C372        C  0.13959234  0.31972259  0.65498697    -0.06000
C373        C  0.21681091  0.36910208  0.65131405    -0.05900
C374        C  0.15843899  0.42217010  0.67816748    -0.31300
N375        N  0.14523043  0.43812309  0.64955939     0.15200
C376        C  0.15247178  0.42625225  0.61388557    -0.31300
H377        H  0.13922883  0.42828613  0.58604630     0.17200
C378        C  0.12296499  0.27483735  0.66343175    -0.30300
N379        N  0.10709563  0.24915652  0.63024537     0.13900
C380        C  0.11596685  0.27672106  0.59951044    -0.30300
C381        C  0.25955471  0.38594010  0.65960907    -0.30500
N382        N  0.28168127  0.39872669  0.62532407     0.14400
H383        H  0.27459240  0.39313102  0.68873694     0.17100
C384        C  0.25367487  0.38973914  0.59521941    -0.30600
H385        H  0.26344140  0.39987620  0.56510641     0.17100
H386        H  0.11461326  0.26594612  0.56913939     0.17100
H387        H  0.15107539  0.42098897  0.70923131     0.17200
H388        H  0.12744720  0.26247841  0.69086734     0.17100
C389        C  0.21861932  0.39350871  0.74241029    -0.12400
C390        C  0.18099116  0.36086203  0.72033138     0.09800
C391        C  0.14329992  0.32948767  0.74131228    -0.12400
C392        C  0.14456926  0.32685141  0.78210560    -0.12400
C393        C  0.18291383  0.35709367  0.80398982     0.09800
C394        C  0.21973982  0.39147375  0.78375844    -0.12400
H395        H  0.24669626  0.42157919  0.72794052     0.13700
H396        H  0.11188847  0.30778576  0.72673181     0.13700
H397        H  0.11462646  0.30256488  0.79691497     0.13700
H398        H  0.24863157  0.41832309  0.79964516     0.13700
C399        C  0.20443415  0.40896685  0.53195048    -0.12400
C400        C  0.16896507  0.37187494  0.55121992     0.09800
C401        C  0.13196439  0.33966230  0.52827767    -0.12400
C402        C  0.11622674  0.32224917  0.98521682    -0.12400
C403        C  0.15606820  0.35799635  0.96997645     0.09800
C404        C  0.18481729  0.39556158  0.99482838    -0.12400
H405        H  0.23117957  0.43775175  0.54874338     0.13700
H406        H  0.10134774  0.31488299  0.54158071     0.13700
H407        H  0.09000584  0.29661037  0.96589164     0.13700
H408        H  0.21233562  0.42716480  0.98336022     0.13700
C409        C  0.05588881  0.17012805  0.61211161    -0.15500
C410        C  0.09395885  0.20296629  0.62856700    -0.30700
H411        H  0.03668279  0.17867969  0.59512600     0.13500
H412        H  0.11215242  0.19404964  0.64677185     0.14100
C413        C  0.32808585  0.42861527  0.62225685    -0.15500
C414        C  0.35412504  0.42897265  0.64981984    -0.30700
H415        H  0.34184513  0.45302223  0.59852568     0.13500
H416        H  0.34029392  0.40291495  0.67220756     0.14100
C417        C  0.11787783  0.45323125  0.65717492    -0.15500
C418        C  0.11606517  0.48256128  0.63399433    -0.30700
H419        H  0.09977122  0.44223767  0.68442514     0.13500
H420        H  0.13716177  0.49812412  0.60896049     0.14100
C421        C  0.09018134  0.15836199  0.87597612    -0.15500
C422        C  0.08990607  0.19030238  0.89673469    -0.30700
H423        H  0.11405116  0.16819379  0.85330458     0.13500
H424        H  0.06673960  0.17955142  0.92028515     0.14100
C425        C  0.35579566  0.42891617  0.90045704    -0.15500
C426        C  0.32534525  0.42488391  0.92402222    -0.30700
H427        H  0.34762535  0.41732619  0.86981006     0.13500
H428        H  0.33414008  0.43612489  0.95477757     0.14100
C429        C  0.09854064  0.43342691  0.86969588    -0.15500
C430        C  0.06506768  0.42425757  0.89209016    -0.30700
H431        H  0.11763555  0.46564217  0.85435045     0.13500
H432        H  0.04539236  0.39092978  0.90570921     0.14100
C433        C  0.42382116  0.12122993  0.71681408    -0.15500
C434        C  0.41833225  0.08413804  0.73337906    -0.30700
H435        H  0.44304531  0.13460185  0.69035752     0.13500
H436        H  0.39650307  0.06842773  0.75795239     0.14100
C437        C  0.40043415  0.33678377  0.74899572    -0.15500
C438        C  0.42082363  0.36142968  0.71685883    -0.30700
H439        H  0.40698740  0.35417935  0.77752430     0.13500
H440        H  0.41697224  0.34337508  0.68934860     0.14100
C441        C  0.16464460  0.06457653  0.74282769    -0.15500
C442        C  0.14421329  0.08157009  0.72598686    -0.30700
H443        H  0.14654377  0.03022618  0.75465895     0.13500
H444        H  0.16415876  0.11697510  0.71648011     0.14100
C445        C  0.42141072  0.06940646  0.99886079    -0.15500
C446        C  0.42660077  0.10750626  0.98531633    -0.30700
H447        H  0.39405887  0.04695323  0.01757732     0.13500
H448        H  0.45102418  0.12740414  0.96328482     0.14100
C449        C  0.43662190  0.31834976  0.99278258    -0.15500
C450        C  0.43055325  0.34632465  0.97240367    -0.30700
H451        H  0.46393227  0.33244802  0.01353493     0.13500
H452        H  0.47432571  0.35915333  0.51424041     0.14100
C453        C  0.14780024  0.08037256  0.96763820    -0.15500
C454        C  0.17027137  0.07486930  0.99485144    -0.30700
H455        H  0.16522427  0.10799332  0.94668086     0.13500
H456        H  0.15377942  0.04894469  0.01739676     0.14100
C457        C  0.31765852  0.18771069  0.84789701    -0.12400
C458        C  0.32620329  0.16131774  0.82372778     0.09800
C459        C  0.32526213  0.12483219  0.84067244    -0.12400
C460        C  0.32296645  0.11971070  0.88144693    -0.12400
C461        C  0.32183490  0.15120497  0.90607369     0.09800
C462        C  0.31595934  0.18303170  0.88867077    -0.12400
H463        H  0.31175819  0.21165238  0.83550543     0.13700
H464        H  0.32549642  0.09972509  0.82245757     0.13700
H465        H  0.32153629  0.09069259  0.89331513     0.13700
H466        H  0.31091003  0.20493750  0.90676430     0.13700
C467        C  0.35938598  0.20655515  0.63618833    -0.12400
C468        C  0.32227188  0.17074370  0.65495200     0.09800
C469        C  0.29323023  0.13024523  0.63276201    -0.12400
C470        C  0.29787791  0.12833859  0.59223264    -0.12400
C471        C  0.33182942  0.16665250  0.57283230     0.09800
C472        C  0.36427063  0.20439048  0.59574569    -0.12400
H473        H  0.38608906  0.23508724  0.65306718     0.13700
H474        H  0.26815555  0.09912286  0.64661937     0.13700
H475        H  0.27474194  0.09678917  0.57595204     0.13700
H476        H  0.39442179  0.23120022  0.58330072     0.13700
C477        C  0.36108153  0.69011968  0.45820643     0.31000
C478        C  0.35878812  0.66779320  0.03755407     0.31000
C479        C  0.37434433  0.65922572  0.47321517    -0.05200
C480        C  0.38571362  0.73173562  0.48679308    -0.06000
C481        C  0.31435199  0.66616467  0.47233469    -0.05900
C482        C  0.38544046  0.65130965  0.01908130    -0.05200
C483        C  0.38138678  0.71685690  0.02135545    -0.06000
C484        C  0.31553257  0.64117796  0.01315707    -0.05900
C485        C  0.40764434  0.63249286  0.03111344    -0.31300
N486        N  0.41086883  0.62968907  0.48896405     0.15200
C487        C  0.40167711  0.64836325  0.45934271    -0.31300
H488        H  0.41566078  0.65558447  0.43025577     0.17200
C489        C  0.40063623  0.76098781  0.03635126    -0.30300
N490        N  0.41863499  0.79045587  0.00602392     0.13900
C491        C  0.41026449  0.77885821  0.48500824    -0.30300
C492        C  0.27229012  0.62481396  0.01921127    -0.30500
N493        N  0.24479225  0.63425840  0.48275405     0.14400
H494        H  0.25762107  0.62340296  0.04696869     0.17100
C495        C  0.27552682  0.65330761  0.45497689    -0.30600
H496        H  0.26968923  0.65668154  0.42424032     0.17100
H497        H  0.41848875  0.79974207  0.45937727     0.17100
H498        H  0.40953682  0.62272946  0.06088118     0.17200
H499        H  0.40176051  0.77114617  0.06687950     0.17100
C500        C  0.35017647  0.68311208  0.20735738     0.31000
C501        C  0.35848407  0.69743873  0.28687088     0.31000
C502        C  0.36842218  0.66068102  0.22985881    -0.05200
C503        C  0.37948502  0.73352697  0.22150313    -0.06000
C504        C  0.30740940  0.66618469  0.22877269    -0.05900
C505        C  0.37281374  0.66761925  0.27015017    -0.05200
C506        C  0.38383401  0.74203207  0.26248538    -0.06000
C507        C  0.31226642  0.67365835  0.26959292    -0.05900
C508        C  0.38417476  0.63940788  0.28507036    -0.31300
N509        N  0.38706703  0.61634036  0.25435145     0.15200
C510        C  0.37698656  0.62891029  0.22053198    -0.31300
H511        H  0.37389472  0.61430510  0.19134246     0.17200
C512        C  0.39371173  0.78642307  0.26719398    -0.30300
N513        N  0.39796490  0.80462130  0.23087164     0.13900
C514        C  0.38806491  0.77208773  0.20335281    -0.30300
C515        C  0.27190114  0.65505188  0.28494904    -0.30500
N516        N  0.24246440  0.63709485  0.25477195     0.14400
H517        H  0.26418229  0.65379501  0.31578203     0.17100
C518        C  0.26347555  0.64407637  0.22021694    -0.30600
H519        H  0.24747610  0.63251017  0.19146919     0.17100
H520        H  0.38496336  0.77545197  0.17195510     0.17100
H521        H  0.38889755  0.63507656  0.31586093     0.17200
H522        H  0.39593112  0.80345251  0.29477660     0.17100
O523        O  0.09650785  0.51186861  0.50021434    -0.79200
O524        O  0.48643548  0.57949649  0.46235339    -0.79200
O525        O  0.09352677  0.59346400  0.38794299    -0.79200
O526        O  0.46777279  0.98343615  0.01967982    -0.79200
O527        O  0.07428280  0.61911815  0.43596096    -0.79300
O528        O  0.01458550  0.02088951  0.00731506    -0.79200
O529        O  0.42889171  0.51071185  0.47565799    -0.79200
O530        O  0.11000623  0.56041996  0.45206301    -0.79200
C531        C  0.12309219  0.54806034  0.48180084     1.10500
C532        C  0.45007326  0.55410465  0.47838564     1.10400
C533        C  0.09983801  0.62695830  0.40858776     1.10500
C534        C  0.50410885  0.01733696  0.03462193     1.10400
O535        O  0.48951062  0.93541521  0.50332570    -0.79200
O536        O  0.50801466  0.55334990  0.35154666    -0.79300
O537        O  0.08253301  0.00255090  0.37432937    -0.79200
O538        O  0.43583540  0.94879279  0.40508539    -0.79200
O539        O  0.43074969  0.00471756  0.38597534    -0.79200
O540        O  0.02898259  0.94921748  0.41064849    -0.79200
O541        O  0.42518979  0.92115212  0.48420537    -0.79200
O542        O  0.01754575  0.50601434  0.36253169    -0.79200
Co543      Co  0.02635284  0.98767029  0.45629055     1.51500
Co544      Co  0.49808414  0.56440639  0.40996236     1.51700
Co545      Co  0.05891657  0.52879843  0.40927461     1.51600
Co546      Co  0.46128679  0.97935257  0.45771691     1.51500
O547        O  0.01303632  0.52335785  0.44447204    -1.41100
C548        C  0.44737906  0.90965928  0.50329460     1.10400
C549        C  0.01401711  0.53511382  0.34430351     1.10500
C550        C  0.06211511  0.96234112  0.38856775     1.10500
C551        C  0.41450185  0.96198160  0.38780659     1.10400
O552        O  0.10352020  0.54618946  0.25819374    -0.79200
O553        O  0.44749812  0.54605970  0.19095777    -0.79200
O554        O  0.11261619  0.60737148  0.13809986    -0.79200
O555        O  0.51127200  0.06048605  0.25874466    -0.79200
O556        O  0.06320377  0.62025769  0.15605323    -0.79300
O557        O  0.99692567  0.96939050  0.26369654    -0.79200
O558        O  0.41501541  0.51146210  0.24696334    -0.79200
O559        O  0.09937914  0.59121050  0.21635775    -0.79200
C560        C  0.12252908  0.58283861  0.23807561     1.10500
C561        C  0.42647238  0.54301226  0.22211980     1.10400
C562        C  0.10103841  0.63451607  0.14252435     1.10500
C563        C  0.52075639  0.03870848  0.28121515     1.10400
O564        O  0.47105666  0.94097752  0.20158307    -0.79200
O565        O  0.46210369  0.47223441  0.10757602    -0.79300
O566        O  0.09913209  0.52680356  0.16466806    -0.79200
O567        O  0.41940409  0.97659507  0.17679858    -0.79200
O568        O  0.42322151  0.01714964  0.12824986    -0.79200
O569        O  0.01430998  0.93675906  0.15389189    -0.79200
O570        O  0.44527679  0.96482818  0.24450227    -0.79200
O571        O  0.04415845  0.52309356  0.11318758    -0.79200
Co572      Co  0.00399261  0.95455414  0.20556962     1.51500
Co573      Co  0.45472250  0.50432979  0.15270791     1.51700
Co574      Co  0.06691645  0.55621551  0.16533035     1.51600
Co575      Co  0.46998553  0.02364005  0.21386888     1.51500
O576        O  0.00826182  0.51769074  0.19325104    -1.41100
C577        C  0.44532910  0.93203522  0.22908233     1.10400
C578        C  0.01973592  0.52664628  0.09012214     1.10500
C579        C  0.04991126  0.96289140  0.13671087     1.10500
C580        C  0.40087452  0.98247239  0.14819784     1.10400
C581        C  0.18286513  0.85639626  0.32942138     0.31000
C582        C  0.17422315  0.85398368  0.40877394     0.31000
C583        C  0.16159458  0.87959629  0.34594649    -0.05200
C584        C  0.15571480  0.80769224  0.34667878    -0.06000
C585        C  0.22602061  0.87897286  0.35364882    -0.05900
C586        C  0.15668235  0.87761470  0.38616989    -0.05200
C587        C  0.15174294  0.80664735  0.38772914    -0.06000
C588        C  0.22162951  0.87832370  0.39450777    -0.05900
C589        C  0.13524176  0.89785793  0.39547102    -0.31300
N590        N  0.12758900  0.91296316  0.36175673     0.15200
C591        C  0.14404303  0.90235182  0.33123373    -0.31300
H592        H  0.14310174  0.91029444  0.30065901     0.17200
C593        C  0.14633122  0.76647957  0.39957161    -0.30300
N594        N  0.14376935  0.74171113  0.36751003     0.15900
C595        C  0.15083479  0.76716081  0.33522521    -0.30300
C596        C  0.26281876  0.89799092  0.41106303    -0.30500
N597        N  0.29178316  0.90920207  0.38173352     0.14400
H598        H  0.27124203  0.90413024  0.44232814     0.17100
C599        C  0.26953381  0.89773871  0.34652471    -0.30600
H600        H  0.28418888  0.90383763  0.31788679     0.17100
H601        H  0.15480106  0.75811011  0.30576900     0.17100
H602        H  0.12674552  0.90222975  0.42487814     0.17200
H603        H  0.14597691  0.75689528  0.42986872     0.17100
C604        C  0.17118351  0.87012957  0.07904678     0.31000
C605        C  0.17942618  0.86838402  0.15870534     0.31000
C606        C  0.14226591  0.87883238  0.10345252    -0.05200
C607        C  0.16143007  0.82457711  0.09550645    -0.06000
C608        C  0.21739171  0.90600387  0.09659328    -0.05900
C609        C  0.14624449  0.87726251  0.14396361    -0.05200
C610        C  0.16648100  0.82431213  0.13617979    -0.06000
C611        C  0.22108790  0.90489397  0.13785777    -0.05900
C612        C  0.11981905  0.88771995  0.16116081    -0.31300
N613        N  0.10053039  0.89664203  0.13214543     0.15200
C614        C  0.11403080  0.89152576  0.09658029    -0.31300
H615        H  0.10434922  0.89693095  0.06811565     0.17200
C616        C  0.15594724  0.78147754  0.14588972    -0.30300
N617        N  0.14321895  0.75503707  0.11243892     0.13900
C618        C  0.14632162  0.78084409  0.08149710    -0.30300
C619        C  0.26357209  0.92127469  0.14649028    -0.30500
N620        N  0.28657040  0.93473056  0.11306283     0.14400
H621        H  0.27643440  0.92059719  0.17492784     0.17100
C622        C  0.25879519  0.92422763  0.08228423    -0.30600
H623        H  0.26757230  0.92591533  0.05165764     0.17100
H624        H  0.13673902  0.76801024  0.05132626     0.17100
H625        H  0.11601649  0.89027185  0.19257120     0.17200
H626        H  0.15477206  0.76932352  0.17535557     0.17100
C627        C  0.21485330  0.90319241  0.22637004    -0.12400
C628        C  0.18123696  0.86655630  0.20310968     0.09800
C629        C  0.14652260  0.82850335  0.22202351    -0.12400
C630        C  0.14805785  0.82440115  0.26256070    -0.12400
C631        C  0.18443838  0.85834570  0.28522837     0.09800
C632        C  0.21667108  0.89888172  0.26700313    -0.12400
H633        H  0.23873170  0.93588797  0.21385029     0.13700
H634        H  0.11801875  0.80188596  0.20538064     0.13700
H635        H  0.12006559  0.79518134  0.27613197     0.13700
H636        H  0.24224842  0.92800587  0.28430985     0.13700
C637        C  0.19477064  0.90805329  0.01246225    -0.12400
C638        C  0.16459728  0.87045096  0.03504552     0.09800
C639        C  0.12773416  0.83267742  0.01583634    -0.12400
C640        C  0.13104086  0.81501631  0.47044996    -0.12400
C641        C  0.16656486  0.85386180  0.45241087     0.09800
C642        C  0.19011972  0.89544655  0.47398021    -0.12400
H643        H  0.22005239  0.94049024  0.02607589     0.13700
H644        H  0.10131657  0.80545018  0.03265956     0.13700
H645        H  0.10757539  0.78428280  0.45365007     0.13700
H646        H  0.21477450  0.92702648  0.45996158     0.13700
C647        C  0.13170059  0.68399375  0.13527350    -0.15500
C648        C  0.12012177  0.70576964  0.11163370    -0.30700
H649        H  0.16230540  0.70330153  0.15182938     0.13500
H650        H  0.09073613  0.68572189  0.09334013     0.14100
C651        C  0.33280928  0.95715541  0.11151290    -0.15500
C652        C  0.35404799  0.95017990  0.13984641    -0.30700
H653        H  0.35081265  0.98324284  0.08946216     0.13500
H654        H  0.33587244  0.92262245  0.16049446     0.14100
C655        C  0.07095689  0.90926302  0.13971897    -0.15500
C656        C  0.07289082  0.94350804  0.12069581    -0.30700
H657        H  0.05086339  0.89507764  0.16555877     0.13500
H658        H  0.09647300  0.96162090  0.09778150     0.14100
C659        C  0.13343547  0.67534573  0.40015695    -0.15500
C660        C  0.13065732  0.69459573  0.36721312    -0.30700
H661        H  0.15159528  0.69722109  0.42564219     0.13500
H662        H  0.11186520  0.67268467  0.34186577     0.14100
C663        C  0.36703087  0.92876552  0.37733890    -0.15500
C664        C  0.33863994  0.93954539  0.38719175    -0.30700
H665        H  0.35489353  0.89467768  0.36561354     0.13500
H666        H  0.35137175  0.97213406  0.40261268     0.14100
C667        C  0.10926214  0.93963293  0.35937135    -0.15500
C668        C  0.07666234  0.93118949  0.38294667    -0.30700
H669        H  0.12295523  0.96773928  0.33885081     0.13500
H670        H  0.06185444  0.90136837  0.40163268     0.14100
C671        C  0.39738842  0.58293877  0.25679936    -0.15500
C672        C  0.41710969  0.57787822  0.22644594    -0.30700
H673        H  0.38947854  0.56248580  0.28300971     0.13500
H674        H  0.42698444  0.60105827  0.20191103     0.14100
C675        C  0.41421723  0.85073101  0.21953373    -0.15500
C676        C  0.41854582  0.88407009  0.24320457    -0.30700
H677        H  0.42546261  0.85936786  0.18930727     0.13500
H678        H  0.40569696  0.87685666  0.27283109     0.14100
C679        C  0.19640068  0.60968810  0.26012064    -0.15500
C680        C  0.17016790  0.61438171  0.23687457    -0.30700
H681        H  0.18305036  0.58536254  0.28399170     0.13500
H682        H  0.18416653  0.64066918  0.21460290     0.14100
C683        C  0.42933849  0.57491751  0.49648854    -0.15500
C684        C  0.44005071  0.61611983  0.48471034    -0.30700
H685        H  0.40023300  0.55339725  0.51342174     0.13500
H686        H  0.46669449  0.63553007  0.46457547     0.14100
C687        C  0.44302384  0.84436533  0.53118754    -0.15500
C688        C  0.42351982  0.86494239  0.52190397    -0.30700
H689        H  0.47820803  0.86406485  0.53329231     0.13500
H690        H  0.47465467  0.85414303  0.95682597     0.14100
C691        C  0.16890017  0.57632383  0.49495749    -0.15500
C692        C  0.19937855  0.61216513  0.47412964    -0.30700
H693        H  0.17816805  0.56519541  0.52048604     0.13500
H694        H  0.19005561  0.62137291  0.44728646     0.14100
C695        C  0.39246931  0.73804099  0.35337545    -0.12400
C696        C  0.36104235  0.69891932  0.33121191     0.09800
C697        C  0.33409234  0.65717702  0.35050941    -0.12400
C698        C  0.33612794  0.65517402  0.39101423    -0.12400
C699        C  0.36436798  0.69501510  0.41388293     0.09800
C700        C  0.39448004  0.73592315  0.39448713    -0.12400
H701        H  0.41667813  0.76951621  0.33918128     0.13700
H702        H  0.31162482  0.62559360  0.33397257     0.13700
H703        H  0.31465136  0.62224063  0.40476387     0.13700
H704        H  0.42090362  0.76543531  0.40999054     0.13700
C705        C  0.39140919  0.70249146  0.14466247    -0.12400
C706        C  0.35115118  0.67620100  0.16345855     0.09800
C707        C  0.31562049  0.63928675  0.14236080    -0.12400
C708        C  0.31851261  0.63387267  0.10190637    -0.12400
C709        C  0.35671922  0.66571033  0.08200400     0.09800
C710        C  0.39415457  0.69727935  0.10441340    -0.12400
H711        H  0.42082612  0.72780320  0.16104414     0.13700
H712        H  0.28621766  0.61387379  0.15699169     0.13700
H713        H  0.29121797  0.60425017  0.08679864     0.13700
H714        H  0.42520352  0.71943005  0.09045330     0.13700
C715        C  0.36704815  0.67491060  0.95785464     0.31000
C716        C  0.34868510  0.66983063  0.53647919     0.31000
C717        C  0.38991892  0.65589798  0.97849915    -0.05200
C718        C  0.38642242  0.72027102  0.98067812    -0.06000
C719        C  0.32060916  0.64488212  0.97247223    -0.05900
C720        C  0.36813381  0.64860602  0.51302386    -0.05200
C721        C  0.37916790  0.72122209  0.52680220    -0.06000
C722        C  0.30739855  0.65539362  0.51213299    -0.05900
C723        C  0.39093934  0.62984724  0.52218022    -0.31300
N724        N  0.42606744  0.62702674  0.99892654     0.15200
C725        C  0.41579423  0.64215195  0.96695579    -0.31300
H726        H  0.42500479  0.64171640  0.93696954     0.17200
C727        C  0.40059777  0.76210601  0.54824226    -0.30300
N728        N  0.41996031  0.79651841  0.52231912     0.13900
C729        C  0.41055895  0.76596797  0.97202220    -0.30300
C730        C  0.26380492  0.63651020  0.51796333    -0.30500
N731        N  0.25172690  0.61655003  0.98358583     0.14400
H732        H  0.24682569  0.62633460  0.54552308     0.17100
C733        C  0.28123349  0.62994845  0.95503623    -0.30600
H734        H  0.27511277  0.63174832  0.92397885     0.17100
H735        H  0.42100599  0.78039894  0.94300525     0.17100
H736        H  0.39553651  0.62053738  0.55120583     0.17200
H737        H  0.40072555  0.76679689  0.57989954     0.17100
C738        C  0.34230655  0.66432263  0.70721747     0.31000
C739        C  0.35212917  0.66594758  0.78699431     0.31000
C740        C  0.35825049  0.63612232  0.72317939    -0.05200
C741        C  0.37421988  0.71198232  0.72656109    -0.06000
C742        C  0.30078766  0.64659449  0.73064106    -0.05900
C743        C  0.36408303  0.63709816  0.76391227    -0.05200
C744        C  0.38010416  0.71287894  0.76709880    -0.06000
C745        C  0.30584923  0.64669524  0.77149538    -0.05900
C746        C  0.39113922  0.62268398  0.77034658    -0.31300
N747        N  0.39930351  0.61117373  0.73488891     0.15200
C748        C  0.37995005  0.61976820  0.70607826    -0.31300
H749        H  0.38390773  0.61707287  0.67473298     0.17200
C750        C  0.41023469  0.75824689  0.77855204    -0.30300
N751        N  0.42118055  0.78472132  0.74624412     0.13900
C752        C  0.39943665  0.75671054  0.71428190    -0.30300
C753        C  0.26524601  0.62606828  0.78763941    -0.30500
N754        N  0.23623233  0.61555707  0.75783406     0.14400
H755        H  0.25727056  0.61834844  0.81840930     0.17100
C756        C  0.25757185  0.62859656  0.72316147    -0.30600
H757        H  0.24192332  0.62380694  0.69472590     0.17100
H758        H  0.40140545  0.76801685  0.68433502     0.17100
H759        H  0.40676829  0.62411090  0.79794636     0.17200
H760        H  0.42223825  0.77143049  0.80830030     0.17100
O761        O  0.09808359  0.50773839  0.98097392    -0.79200
O762        O  0.46249206  0.55103883  0.91856175    -0.79200
O763        O  0.09243696  0.61477794  0.91524526    -0.79200
O764        O  0.46984567  0.00311274  0.51536151    -0.79200
O765        O  0.03535572  0.59218682  0.87677318    -0.79300
O766        O  0.03106199  0.02239930  0.50561655    -0.79200
O767        O  0.49007980  0.55367662  0.97814445    -0.79200
O768        O  0.12235676  0.57645760  0.96104255    -0.79200
C769        C  0.12902807  0.54961642  0.97820700     1.10500
C770        C  0.47470605  0.56819074  0.95366492     1.10400
C771        C  0.07128106  0.62419274  0.89326600     1.10500
C772        C  0.50423144  0.02209552  0.53564571     1.10400
O773        O  0.50397421  0.94508868  0.99716609    -0.79200
O774        O  0.49612814  0.49241912  0.83938683    -0.79300
O775        O  0.06949248  0.00210546  0.87405735    -0.79200
O776        O  0.40706810  0.94577735  0.91183120    -0.79200
O777        O  0.41991144  0.01303049  0.89796563    -0.79200
O778        O  0.03189257  0.95554630  0.91986104    -0.79200
O779        O  0.45259951  0.91872448  0.95249743    -0.79200
O780        O  0.06622617  0.54668584  0.85333704    -0.79200
Co781      Co  0.02404996  0.99390977  0.95973517     1.51500
Co782      Co  0.48011814  0.51989079  0.88079669     1.51700
Co783      Co  0.08804046  0.55739167  0.91101515     1.51600
Co784      Co  0.44161257  0.96674650  0.96219368     1.51500
O785        O  0.03150235  0.52769786  0.94464160    -1.41100
C786        C  0.47364694  0.91186597  0.97730141     1.10400
C787        C  0.02983104  0.51516479  0.83800623     1.10500
C788        C  0.05937682  0.96789573  0.89295137     1.10500
C789        C  0.39561222  0.96944768  0.89560621     1.10400
O790        O  0.10262512  0.52881829  0.72781039    -0.79200
O791        O  0.46445852  0.55238425  0.69965105    -0.79200
O792        O  0.05523421  0.61080765  0.67473776    -0.79200
O793        O  0.45196296  0.98577499  0.76989965    -0.79200
O794        O  0.00005964  0.57560310  0.63432690    -0.79300
O795        O  0.01325609  0.01023895  0.76097188    -0.79200
O796        O  0.43526309  0.50363798  0.74937371    -0.79200
O797        O  0.10395649  0.59075446  0.71613732    -0.79200
C798        C  0.12141485  0.57218572  0.73051817     1.10500
C799        C  0.44241764  0.53871939  0.73193727     1.10400
C800        C  0.03272570  0.61300522  0.64835142     1.10500
C801        C  0.48849689  0.00666475  0.78718881     1.10400
O802        O  0.49996149  0.93490078  0.73732268    -0.79200
O803        O  0.48169874  0.49527556  0.60284291    -0.79300
O804        O  0.10442377  0.53994643  0.65001011    -0.79200
O805        O  0.40986547  0.96253286  0.65567316    -0.79200
O806        O  0.41029532  0.01680964  0.62349478    -0.79200
O807        O  0.00365657  0.94926992  0.65801302    -0.79200
O808        O  0.44215802  0.92287860  0.70495071    -0.79200
O809        O  0.05007449  0.55414759  0.60634023    -0.79200
Co810      Co  0.00594057  0.98007863  0.70828484     1.51500
Co811      Co  0.47421801  0.52041079  0.65246006     1.51700
Co812      Co  0.07462112  0.57061744  0.66399272     1.51600
Co813      Co  0.43879661  0.97878491  0.71066736     1.51500
O814        O  0.02157482  0.51567548  0.69123134    -1.41100
C815        C  0.46192649  0.90736468  0.72259083     1.10400
C816        C  0.01581625  0.51888589  0.58990877     1.10500
C817        C  0.03956287  0.96520111  0.64206421     1.10500
C818        C  0.38895706  0.97671560  0.63814428     1.10400
C819        C  0.16919816  0.86137004  0.82842851     0.31000
C820        C  0.16259267  0.85895267  0.90824299     0.31000
C821        C  0.15933733  0.89384153  0.84683072    -0.05200
C822        C  0.13381189  0.81416217  0.84532051    -0.06000
C823        C  0.21078749  0.87395251  0.85167990    -0.05900
C824        C  0.15596734  0.89241177  0.88729876    -0.05200
C825        C  0.13029767  0.81292029  0.88641984    -0.06000
C826        C  0.20644332  0.87171453  0.89262890    -0.05900
C827        C  0.14180634  0.91903774  0.89801079    -0.31300
N828        N  0.13627801  0.93649839  0.86486348     0.15200
C829        C  0.14752905  0.92194967  0.83321912    -0.31300
H830        H  0.14393043  0.92818851  0.80264983     0.17200
C831        C  0.11116307  0.76767986  0.89637682    -0.30300
N832        N  0.10055867  0.74136666  0.86302531     0.15900
C833        C  0.11547424  0.76951415  0.83181075    -0.30300
C834        C  0.24482144  0.88247885  0.90939816    -0.30500
N835        N  0.27332111  0.89276230  0.88030454     0.14400
H836        H  0.25192214  0.88361784  0.94065370     0.17100
C837        C  0.25315123  0.88774149  0.84477136    -0.30600
H838        H  0.26799198  0.89316553  0.81629821     0.17100
H839        H  0.11650556  0.75886294  0.80199867     0.17100
H840        H  0.13346465  0.92313222  0.92756809     0.17200
H841        H  0.10809004  0.75510714  0.92598574     0.17100
C842        C  0.15298907  0.85629225  0.57805653     0.31000
C843        C  0.16068951  0.86709764  0.65820505     0.31000
C844        C  0.13493085  0.88189406  0.59641941    -0.05200
C845        C  0.12975725  0.81046686  0.60148304    -0.06000
C846        C  0.19971780  0.88292164  0.59555224    -0.05900
C847        C  0.13836568  0.88673996  0.63728288    -0.05200
C848        C  0.13444324  0.81709908  0.64243025    -0.06000
C849        C  0.20376935  0.88812775  0.63637585    -0.05900
C850        C  0.12022210  0.90977003  0.64830719    -0.31300
N851        N  0.10644156  0.91961258  0.61515229     0.15200
C852        C  0.11577222  0.90334391  0.58319622    -0.31300
H853        H  0.10934356  0.90708385  0.55272679     0.17200
C854        C  0.11754933  0.77518701  0.65940126    -0.30300
N855        N  0.10105134  0.74224794  0.63074935     0.13900
C856        C  0.10936516  0.76311303  0.59512858    -0.30300
C857        C  0.24750914  0.91009925  0.64564620    -0.30500
N858        N  0.26991068  0.92080663  0.61172127     0.14400
H859        H  0.26273680  0.91783521  0.67469682     0.17100
C860        C  0.24116507  0.90400524  0.58093222    -0.30600
H861        H  0.25007988  0.90671082  0.55024066     0.17100
H862        H  0.10418802  0.74538978  0.56716237     0.17100
H863        H  0.11839184  0.91993098  0.67812141     0.17200
H864        H  0.11924906  0.76911407  0.69046435     0.17100
C865        C  0.20063111  0.90468194  0.72411454    -0.12400
C866        C  0.16258121  0.87190083  0.70268400     0.09800
C867        C  0.12503013  0.84179191  0.72367557    -0.12400
C868        C  0.12786680  0.83744947  0.76393356    -0.12400
C869        C  0.16830614  0.86362792  0.78424813     0.09800
C870        C  0.20386979  0.89995091  0.76457245    -0.12400
H871        H  0.22731925  0.93466754  0.71023314     0.13700
H872        H  0.09377325  0.81993298  0.70862543     0.13700
H873        H  0.09807234  0.81386970  0.77904177     0.13700
H874        H  0.23346901  0.92536685  0.78058793     0.13700
C875        C  0.18180083  0.89666251  0.51371437    -0.12400
C876        C  0.15226337  0.85569534  0.53340202     0.09800
C877        C  0.12446671  0.81572742  0.51074233    -0.12400
C878        C  0.12562067  0.82885308  0.97471064    -0.12400
C879        C  0.16054733  0.86271230  0.95245706     0.09800
C880        C  0.19324438  0.90387353  0.97161412    -0.12400
H881        H  0.20074065  0.92921922  0.52979434     0.13700
H882        H  0.09693646  0.78544739  0.52353093     0.13700
H883        H  0.09655302  0.79982099  0.96085512     0.13700
H884        H  0.21821530  0.93263396  0.95483823     0.13700
C885        C  0.04638821  0.65862596  0.63279744    -0.15500
C886        C  0.08756797  0.69600130  0.63879584    -0.30700
H887        H  0.02301328  0.66169442  0.61664603     0.13500
H888        H  0.11020144  0.69230213  0.65561751     0.14100
C889        C  0.31650222  0.94897656  0.60888374    -0.15500
C890        C  0.34123130  0.94550167  0.63545616    -0.30700
H891        H  0.33147184  0.97337336  0.58517175     0.13500
H892        H  0.32555643  0.91841780  0.65696717     0.14100
C893        C  0.08982395  0.94755878  0.61436781    -0.15500
C894        C  0.05231390  0.93368583  0.63190297    -0.30700
H895        H  0.10971465  0.98161510  0.60200057     0.13500
H896        H  0.03239349  0.89892611  0.64289399     0.14100
C897        C  0.08895119  0.67311747  0.89054936    -0.15500
C898        C  0.08113202  0.69265353  0.86128386    -0.30700
H899        H  0.11212465  0.69506551  0.91394837     0.13500
H900        H  0.06146353  0.67227186  0.83555091     0.14100
C901        C  0.35185723  0.94711150  0.87627924    -0.15500
C902        C  0.31721778  0.90657019  0.88824221    -0.30700
H903        H  0.34644208  0.96763908  0.85684250     0.13500
H904        H  0.32214914  0.88854235  0.91103131     0.14100
C905        C  0.11427668  0.95884648  0.86343590    -0.15500
C906        C  0.07903424  0.94283570  0.88562322    -0.30700
H907        H  0.12676414  0.98875369  0.84524108     0.13500
H908        H  0.06660627  0.91195258  0.90234639     0.14100
C909        C  0.42670730  0.59621084  0.72675566    -0.15500
C910        C  0.42509732  0.56372831  0.74809076    -0.30700
H911        H  0.44324200  0.60587564  0.69874062     0.13500
H912        H  0.40628191  0.55169496  0.77478310     0.14100
C913        C  0.44796548  0.83424380  0.74698260    -0.15500
C914        C  0.44057405  0.85739332  0.72092153    -0.30700
H915        H  0.47141106  0.85270674  0.77118837     0.13500
H916        H  0.41433754  0.83834458  0.69909311     0.14100
C917        C  0.18972586  0.58816839  0.76047536    -0.15500
C918        C  0.16714750  0.60299132  0.74426709    -0.30700
H919        H  0.17313466  0.55315649  0.77071828     0.13500
H920        H  0.18479878  0.63865789  0.73549796     0.14100
C921        C  0.46824857  0.60425671  0.96489038    -0.15500
C922        C  0.44659197  0.60258660  0.99725464    -0.30700
H923        H  0.47460160  0.62808661  0.94178805     0.13500
H924        H  0.44006840  0.57852797  0.02034557     0.14100
C925        C  0.43842327  0.83886693  0.00882280    -0.15500
C926        C  0.46461629  0.86660842  0.98067041    -0.30700
H927        H  0.42912637  0.85237603  0.03252328     0.13500
H928        H  0.38839432  0.84396892  0.51814995     0.14100
C929        C  0.17343914  0.56661451  0.99242199    -0.15500
C930        C  0.20828427  0.60364753  0.97609762    -0.30700
H931        H  0.17785718  0.54629831  0.01307336     0.13500
H932        H  0.20339831  0.62101638  0.95260106     0.14100
C933        C  0.35565871  0.70183323  0.85236431    -0.12400
C934        C  0.35589143  0.66773607  0.83118818     0.09800
C935        C  0.35529261  0.63351155  0.85201140    -0.12400
C936        C  0.36050876  0.63706593  0.89276293    -0.12400
C937        C  0.36742736  0.67535667  0.91352553     0.09800
C938        C  0.36157796  0.70576917  0.89308383    -0.12400
H939        H  0.35050334  0.72524063  0.83742692     0.13700
H940        H  0.34883706  0.60295043  0.83734948     0.13700
H941        H  0.35703972  0.60858026  0.90806824     0.13700
H942        H  0.35893294  0.73092417  0.90846901     0.13700
C943        C  0.38204352  0.68770971  0.64387157    -0.12400
C944        C  0.34179950  0.66338345  0.66271212     0.09800
C945        C  0.30451790  0.63145912  0.64007299    -0.12400
C946        C  0.30643270  0.63049415  0.59899489    -0.12400
C947        C  0.34570972  0.66113336  0.58018973     0.09800
C948        C  0.38400946  0.68561473  0.60325707    -0.12400
H949        H  0.41231466  0.70785119  0.66070672     0.13700
H950        H  0.27446555  0.60582438  0.65369197     0.13700
H951        H  0.27777977  0.60445613  0.58252213     0.13700
H952        H  0.41554434  0.70551789  0.58967388     0.13700
C953        C  0.84704852  0.17227311  0.46002732     0.31000
C954        C  0.84104683  0.16249748  0.03921899     0.31000
C955        C  0.86074726  0.14306440  0.47855565    -0.05200
C956        C  0.87587110  0.21803124  0.48288856    -0.06000
C957        C  0.80200871  0.15185240  0.47618087    -0.05900
C958        C  0.84572426  0.12575413  0.02046823    -0.05200
C959        C  0.87377041  0.20652417  0.01613805    -0.06000
C960        C  0.79678483  0.14938372  0.02285343    -0.05900
C961        C  0.87302343  0.11273705  0.03108484    -0.31300
N962        N  0.88972822  0.10602951  0.49692766     0.15200
C963        C  0.88081350  0.12284967  0.46551324    -0.31300
H964        H  0.89067615  0.12269597  0.43561162     0.17200
C965        C  0.89519318  0.25340717  0.02372403    -0.30300
N966        N  0.90569312  0.27560952  0.98888722     0.13900
C967        C  0.90597100  0.26317185  0.47353319    -0.30300
C968        C  0.75592725  0.13384701  0.03687147    -0.30500
N969        N  0.73338561  0.12322248  0.48876310     0.14400
H970        H  0.74641298  0.12989240  0.06737765     0.17100
C971        C  0.76231565  0.13682023  0.45960202    -0.30600
H972        H  0.75509110  0.13665977  0.42849171     0.17100
H973        H  0.91715489  0.27552482  0.44422365     0.17100
H974        H  0.88759136  0.11698178  0.06009244     0.17200
H975        H  0.89887717  0.26981195  0.05208609     0.17100
C976        C  0.84497502  0.17421797  0.21017169     0.31000
C977        C  0.84586160  0.17687968  0.29031404     0.31000
C978        C  0.85961155  0.14704970  0.23066575    -0.05200
C979        C  0.87466474  0.22218510  0.22961084    -0.06000
C980        C  0.80107526  0.15627929  0.22908171    -0.05900
C981        C  0.86084883  0.14863921  0.27151225    -0.05200
C982        C  0.87618208  0.22415324  0.27077199    -0.06000
C983        C  0.80145842  0.15675680  0.27005862    -0.05900
C984        C  0.87386062  0.12109634  0.28381220    -0.31300
N985        N  0.87905366  0.10225303  0.25135119     0.15200
C986        C  0.87047480  0.11798720  0.21870704    -0.31300
H987        H  0.87040470  0.10769822  0.18841172     0.17200
C988        C  0.90277456  0.27052863  0.28174919    -0.30300
N989        N  0.91478521  0.29558869  0.24840545     0.13900
C990        C  0.89705853  0.26644348  0.21681994    -0.30300
C991        C  0.75889523  0.13401637  0.28181691    -0.30500
N992        N  0.73311229  0.12151082  0.24896739     0.14400
H993        H  0.74745280  0.12621471  0.31184558     0.17100
C994        C  0.75845744  0.13529757  0.21667803    -0.30600
H995        H  0.74621639  0.12865448  0.18647179     0.17100
H996        H  0.89755882  0.27708324  0.18686434     0.17100
H997        H  0.87900072  0.11470777  0.31379447     0.17200
H998        H  0.91033430  0.28535961  0.31130567     0.17100
O999        O  0.57868044  0.00960490  0.47518279    -0.79200
O1000       O  0.95936121  0.05820813  0.44803527    -0.79200
O1001       O  0.58977698  0.11733677  0.38734622    -0.79200
O1002       O  0.97935082  0.49344100  0.02888705    -0.79200
O1003       O  0.54052332  0.12371849  0.41536686    -0.79300
O1004       O  0.51925117  0.49811504  0.01660742    -0.79200
O1005       O  0.90815237  0.98594853  0.46288302    -0.79200
O1006       O  0.60798512  0.07655480  0.44679847    -0.79200
C1007       C  0.61138623  0.05069455  0.46989903     1.10500
C1008       C  0.92385607  0.02883750  0.46473943     1.10400
C1009       C  0.57763261  0.14157380  0.40141045     1.10500
C1010       C  0.01539558  0.51286131  0.04694091     1.10400
O1011       O  0.00993264  0.44521053  0.49789182    -0.79200
O1012       O  0.99193563  0.03831357  0.33959644    -0.79300
O1013       O  0.59659746  0.51918656  0.38133989    -0.79200
O1014       O  0.92762549  0.46746631  0.41582793    -0.79200
O1015       O  0.94844724  0.53936477  0.40936824    -0.79200
O1016       O  0.55159456  0.47017057  0.42634751    -0.79200
O1017       O  0.96006826  0.42594765  0.45331103    -0.79200
O1018       O  0.54019522  0.02863183  0.34581486    -0.79200
Co1019     Co  0.54470505  0.50843733  0.46878376     1.51500
Co1020     Co  0.97699612  0.04621944  0.39634191     1.51700
Co1021     Co  0.57136907  0.05245400  0.39763189     1.51600
Co1022     Co  0.95457407  0.47610649  0.46864082     1.51500
O1023       O  0.51691922  0.03460933  0.43049006    -1.41100
C1024       C  0.97796858  0.41431359  0.47695542     1.10400
C1025       C  0.52334479  0.04484146  0.32607920     1.10500
C1026       C  0.57918774  0.48108678  0.39872380     1.10500
C1027       C  0.92210943  0.49672506  0.40158715     1.10400
O1028       O  0.59690639  0.03906969  0.21770318    -0.79200
O1029       O  0.93925406  0.03640270  0.18289743    -0.79200
O1030       O  0.56324796  0.12918716  0.15635962    -0.79200
O1031       O  0.97268128  0.49612990  0.28392685    -0.79200
O1032       O  0.51195566  0.10323426  0.11254041    -0.79300
O1033       O  0.50588267  0.48025005  0.27505767    -0.79200
O1034       O  0.90447387  0.99766000  0.23676956    -0.79200
O1035       O  0.60530183  0.10321097  0.20060947    -0.79200
C1036       C  0.61980024  0.08274414  0.21702985     1.10500
C1037       C  0.91757821  0.03127720  0.21394129     1.10400
C1038       C  0.54536296  0.13678663  0.12876222     1.10500
C1039       C  0.00728979  0.53074187  0.29955669     1.10400
O1040       O  0.01467591  0.46167896  0.26763818    -0.79200
O1041       O  0.95623953  0.96921255  0.09583169    -0.79300
O1042       O  0.59510651  0.04069790  0.13882865    -0.79200
O1043       O  0.92301184  0.45503688  0.17404037    -0.79200
O1044       O  0.93345219  0.51904877  0.15441586    -0.79200
O1045       O  0.52079391  0.44420824  0.16619187    -0.79200
O1046       O  0.95986658  0.42954517  0.22538567    -0.79200
O1047       O  0.54756851  0.06143789  0.09249052    -0.79200
Co1048     Co  0.51229640  0.46428086  0.21748606     1.51500
Co1049     Co  0.94737079  0.99767723  0.14262509     1.51700
Co1050     Co  0.57346926  0.08033330  0.14972216     1.51600
Co1051     Co  0.95196521  0.47932532  0.22564371     1.51500
O1052       O  0.51739313  0.03176245  0.17938675    -1.41100
C1053       C  0.98095727  0.42554382  0.25239123     1.10400
C1054       C  0.51044265  0.02865035  0.07787614     1.10500
C1055       C  0.55683339  0.46840680  0.14966218     1.10500
C1056       C  0.90945028  0.47547043  0.15627601     1.10400
C1057       C  0.69866855  0.38241242  0.32993319     0.31000
C1058       C  0.69507560  0.38431927  0.40950549     0.31000
C1059       C  0.67082436  0.39734410  0.34658838    -0.05200
C1060       C  0.68145592  0.33624383  0.35000033    -0.06000
C1061       C  0.74300412  0.41527481  0.35124687    -0.05900
C1062       C  0.66873269  0.39767057  0.38705911    -0.05200
C1063       C  0.67974668  0.33758418  0.39086424    -0.06000
C1064       C  0.74090230  0.41599506  0.39288949    -0.05900
C1065       C  0.64772400  0.41758327  0.39702007    -0.31300
N1066       N  0.63709367  0.42968931  0.36327908     0.15200
C1067       C  0.65173651  0.41827701  0.33212050    -0.31300
H1068       H  0.65039176  0.42650050  0.30163995     0.17200
C1069       C  0.66385768  0.29430668  0.40406851    -0.30300
N1070       N  0.65517729  0.26623158  0.37228070     0.15900
C1071       C  0.66648834  0.29166969  0.33909845    -0.30300
C1072       C  0.77918468  0.42395792  0.40730915    -0.30500
N1073       N  0.80494666  0.43073793  0.37702328     0.14400
H1074       H  0.78623374  0.42034941  0.43766074     0.17100
C1075       C  0.78310039  0.42400620  0.34274322    -0.30600
H1076       H  0.79354487  0.42048389  0.31410772     0.17100
H1077       H  0.66290738  0.27836676  0.30930116     0.17100
H1078       H  0.64343756  0.42586149  0.42672446     0.17200
H1079       H  0.65882583  0.28402385  0.43458893     0.17100
C1080       C  0.68307233  0.38287441  0.07947704     0.31000
C1081       C  0.68571200  0.38267679  0.15968169     0.31000
C1082       C  0.66785500  0.40950021  0.10047515    -0.05200
C1083       C  0.65522092  0.33479819  0.09818917    -0.06000
C1084       C  0.72849398  0.40333832  0.09854668    -0.05900
C1085       C  0.66905786  0.40922549  0.14139751    -0.05200
C1086       C  0.65701901  0.33526073  0.13933523    -0.06000
C1087       C  0.72939138  0.40244485  0.13952492    -0.05900
C1088       C  0.65164469  0.43202238  0.15483600    -0.31300
N1089       N  0.64050942  0.44647491  0.12298517     0.15200
C1090       C  0.65029830  0.43308175  0.08954087    -0.31300
H1091       H  0.64371815  0.43867804  0.05973580     0.17200
C1092       C  0.63789851  0.29082201  0.15091473    -0.30300
N1093       N  0.62253098  0.26314847  0.11854323     0.13900
C1094       C  0.63368762  0.28913190  0.08590521    -0.30300
C1095       C  0.77170464  0.42116120  0.15144548    -0.30500
N1096       N  0.79692031  0.43528260  0.11916483     0.14400
H1097       H  0.78390574  0.42542158  0.18150975     0.17100
C1098       C  0.77105643  0.42432097  0.08658433    -0.30600
H1099       H  0.78267575  0.43102609  0.05665678     0.17100
H1100       H  0.62955695  0.27597390  0.05593889     0.17100
H1101       H  0.64649163  0.43690097  0.18537023     0.17200
H1102       H  0.63786006  0.27915375  0.18032161     0.17100
C1103       C  0.72263369  0.42232955  0.22445810    -0.12400
C1104       C  0.68730439  0.38426955  0.20410920     0.09800
C1105       C  0.65301472  0.34924560  0.22597893    -0.12400
C1106       C  0.65808240  0.34764436  0.26637349    -0.12400
C1107       C  0.69682648  0.38200749  0.28585033     0.09800
C1108       C  0.72791074  0.42086969  0.26491288    -0.12400
H1109       H  0.74649546  0.45308253  0.20904588     0.13700
H1110       H  0.62203073  0.32351828  0.21225107     0.13700
H1111       H  0.63107019  0.32031121  0.28267227     0.13700
H1112       H  0.75549158  0.45081372  0.27978572     0.13700
C1113       C  0.71529099  0.42276805  0.01551607    -0.12400
C1114       C  0.68131029  0.38488118  0.03539823     0.09800
C1115       C  0.64455175  0.35088405  0.01352747    -0.12400
C1116       C  0.64963586  0.35183411  0.46928357    -0.12400
C1117       C  0.68978121  0.38528491  0.45329692     0.09800
C1118       C  0.72204233  0.42107348  0.47804723    -0.12400
H1119       H  0.74048750  0.45347722  0.03141652     0.13700
H1120       H  0.61467271  0.32544601  0.02767781     0.13700
H1121       H  0.62246477  0.32685656  0.45036351     0.13700
H1122       H  0.75108473  0.45086322  0.46633422     0.13700
C1123       C  0.56312912  0.18358620  0.11613579    -0.15500
C1124       C  0.60569143  0.21568724  0.12033206    -0.30700
H1125       H  0.54152638  0.19218160  0.10444201     0.13500
H1126       H  0.62674957  0.20663980  0.13259208     0.14100
C1127       C  0.84363378  0.46100506  0.12051959    -0.15500
C1128       C  0.86298042  0.44771802  0.14460124    -0.30700
H1129       H  0.86277158  0.49209827  0.10358441     0.13500
H1130       H  0.84259386  0.41479185  0.15886375     0.14100
C1131       C  0.61887566  0.46908491  0.12483695    -0.15500
C1132       C  0.57762681  0.44578649  0.13641713    -0.30700
H1133       H  0.63750723  0.50598282  0.12027014     0.13500
H1134       H  0.56023976  0.40891472  0.14082166     0.14100
C1135       C  0.60623326  0.19216676  0.40181674    -0.15500
C1136       C  0.63396399  0.21710884  0.37300843    -0.30700
H1137       H  0.59997945  0.20949628  0.42452304     0.13500
H1138       H  0.63709311  0.19975918  0.34795838     0.14100
C1139       C  0.88207790  0.48135548  0.37906640    -0.15500
C1140       C  0.84650038  0.43857344  0.38206544    -0.30700
H1141       H  0.87902150  0.50740368  0.36623759     0.13500
H1142       H  0.84826037  0.41327417  0.39815835     0.14100
C1143       C  0.61889452  0.45584777  0.36208371    -0.15500
C1144       C  0.59023297  0.44867946  0.38930431    -0.30700
H1145       H  0.63087626  0.48336701  0.34101323     0.13500
H1146       H  0.57731279  0.41942795  0.40859788     0.14100
C1147       C  0.88937335  0.06905827  0.25149546    -0.15500
C1148       C  0.90960129  0.06644870  0.22062870    -0.30700
H1149       H  0.88034330  0.04625871  0.27621086     0.13500
H1150       H  0.92071261  0.09173197  0.19768048     0.14100
C1151       C  0.93015032  0.34274303  0.24504216    -0.15500
C1152       C  0.96583774  0.37837822  0.26383839    -0.30700
H1153       H  0.91356092  0.34952439  0.22262998     0.13500
H1154       H  0.98405002  0.37278550  0.28530799     0.14100
C1155       C  0.68642507  0.09422365  0.24750263    -0.15500
C1156       C  0.66591130  0.11096714  0.23037611    -0.30700
H1157       H  0.66838565  0.05897525  0.25732365     0.13500
H1158       H  0.68528152  0.14683872  0.22206002     0.14100
C1159       C  0.89839709  0.04430736  0.48350806    -0.15500
C1160       C  0.91618326  0.08858417  0.49400792    -0.30700
H1161       H  0.86350583  0.01979261  0.48495546     0.13500
H1162       H  0.95101188  0.11332274  0.49230055     0.14100
C1163       C  0.94596130  0.33946513  0.50980936    -0.15500
C1164       C  0.96194106  0.36548926  0.47742159    -0.30700
H1165       H  0.95006629  0.35614136  0.53830460     0.13500
H1166       H  0.97358356  0.34637281  0.02611566     0.14100
C1167       C  0.65439902  0.06791058  0.48885758    -0.15500
C1168       C  0.68979023  0.11025627  0.48143532    -0.30700
H1169       H  0.65800520  0.04434021  0.50573346     0.13500
H1170       H  0.68611949  0.13247782  0.46253992     0.14100
C1171       C  0.84791975  0.21138767  0.35639937    -0.12400
C1172       C  0.84306080  0.17514498  0.33421939     0.09800
C1173       C  0.82896413  0.13407459  0.35327044    -0.12400
C1174       C  0.83152808  0.13368062  0.39393560    -0.12400
C1175       C  0.84630625  0.17384128  0.41608101     0.09800
C1176       C  0.84908064  0.21052052  0.39724914    -0.12400
H1177       H  0.84926753  0.23940153  0.34253157     0.13700
H1178       H  0.81605549  0.10225451  0.33686876     0.13700
H1179       H  0.82100847  0.10172295  0.40798619     0.13700
H1180       H  0.85087307  0.23781820  0.41379936     0.13700
C1181       C  0.88279567  0.20217694  0.14482508    -0.12400
C1182       C  0.84557569  0.17039612  0.16590718     0.09800
C1183       C  0.81195049  0.13056549  0.14588583    -0.12400
C1184       C  0.81165497  0.12739807  0.10497663    -0.12400
C1185       C  0.84493386  0.16404181  0.08348321     0.09800
C1186       C  0.88226171  0.19946951  0.10387413    -0.12400
H1187       H  0.91272875  0.22862562  0.15969817     0.13700
H1188       H  0.78591425  0.10180624  0.16177386     0.13700
H1189       H  0.78488145  0.09675160  0.09002460     0.13700
H1190       H  0.91143769  0.22433771  0.08863858     0.13700
C1191       C  0.83109635  0.15361196  0.95965563     0.31000
C1192       C  0.84157096  0.16627116  0.53961449     0.31000
C1193       C  0.84085011  0.12144778  0.97910254    -0.05200
C1194       C  0.86884334  0.20110348  0.97499379    -0.06000
C1195       C  0.79264307  0.14528529  0.98226651    -0.05900
C1196       C  0.85822844  0.13975492  0.51938855    -0.05200
C1197       C  0.87228042  0.21578246  0.52357738    -0.06000
C1198       C  0.79817280  0.14831377  0.51674064    -0.05900
C1199       C  0.87697801  0.11686554  0.53028549    -0.31300
N1200       N  0.88426094  0.10058949  0.99798588     0.15200
C1201       C  0.86695998  0.10806395  0.96649643    -0.31300
H1202       H  0.87686351  0.10862605  0.93645392     0.17200
C1203       C  0.89816751  0.26108879  0.53776417    -0.30300
N1204       N  0.91890159  0.28962941  0.50707309     0.13900
C1205       C  0.88946829  0.24411312  0.95915103    -0.30300
C1206       C  0.75468351  0.13050772  0.52403348    -0.30500
N1207       N  0.72841585  0.12146913  0.00515860     0.14400
H1208       H  0.74005072  0.12518155  0.55260227     0.17100
C1209       C  0.75078199  0.12820792  0.97194259    -0.30600
H1210       H  0.73672878  0.11791275  0.94228367     0.17100
H1211       H  0.88984161  0.25213216  0.92836024     0.17100
H1212       H  0.88295045  0.11080339  0.56018290     0.17200
H1213       H  0.90090806  0.27293541  0.56798178     0.17100
C1214       C  0.82461243  0.16057505  0.70987694     0.31000
C1215       C  0.82365490  0.15689568  0.78993609     0.31000
C1216       C  0.84929098  0.14264526  0.72869148    -0.05200
C1217       C  0.84396933  0.20690077  0.73177095    -0.06000
C1218       C  0.77941148  0.13040357  0.72800611    -0.05900
C1219       C  0.84925659  0.14056876  0.76948683    -0.05200
C1220       C  0.84434369  0.20550720  0.77277766    -0.06000
C1221       C  0.77922559  0.12806279  0.76892203    -0.05900
C1222       C  0.87069874  0.12034358  0.77944052    -0.31300
N1223       N  0.88302546  0.11030792  0.74558401     0.15200
C1224       C  0.87002422  0.12384075  0.71453762    -0.31300
H1225       H  0.87324417  0.11804617  0.68365860     0.17200
C1226       C  0.86590749  0.25068984  0.78650773    -0.30300
N1227       N  0.87697036  0.27882405  0.75522106     0.13900
C1228       C  0.86333952  0.25207620  0.72162043    -0.30300
C1229       C  0.73661222  0.10139589  0.78042134    -0.30500
N1230       N  0.71109930  0.08865573  0.74749561     0.14400
H1231       H  0.72504527  0.09380813  0.81040120     0.17100
C1232       C  0.73661208  0.10701957  0.71555296    -0.30600
H1233       H  0.72443389  0.10501787  0.68588982     0.17100
H1234       H  0.86744139  0.26415227  0.69173397     0.17100
H1235       H  0.87632036  0.11257882  0.80869939     0.17200
H1236       H  0.87442244  0.26272637  0.81693147     0.17100
O1237       O  0.59313831  0.03734809  0.98199061    -0.79200
O1238       O  0.95874217  0.05495477  0.95716943    -0.79200
O1239       O  0.57123275  0.09307313  0.86470717    -0.79200
O1240       O  0.97593191  0.48223411  0.52728524    -0.79200
O1241       O  0.54639839  0.11327549  0.91150543    -0.79300
O1242       O  0.53891218  0.54013866  0.51424743    -0.79200
O1243       O  0.90349622  0.98448496  0.96988875    -0.79200
O1244       O  0.60222515  0.07906830  0.93084979    -0.79200
C1245       C  0.61701585  0.07216224  0.96220399     1.10500
C1246       C  0.92332176  0.02763556  0.97423329     1.10400
C1247       C  0.57206929  0.12429892  0.88306165     1.10500
C1248       C  0.01192282  0.51328858  0.54499507     1.10400
O1249       O  0.02059369  0.43290421  0.00672502    -0.79200
O1250       O  0.97578101  0.03104124  0.84378625    -0.79300
O1251       O  0.58362537  0.49981511  0.89372804    -0.79200
O1252       O  0.93518247  0.45986042  0.91573520    -0.79200
O1253       O  0.94120630  0.51571826  0.88075766    -0.79200
O1254       O  0.51948722  0.43929789  0.91083402    -0.79200
O1255       O  0.96258853  0.41946472  0.97370140    -0.79200
O1256       O  0.51108804  0.99937129  0.85067053    -0.79200
Co1257     Co  0.51694197  0.46927016  0.95988515     1.51500
Co1258     Co  0.96900484  0.04119262  0.90330158     1.51700
Co1259     Co  0.54800650  0.03765745  0.89561954     1.51600
Co1260     Co  0.96497622  0.47968015  0.97037289     1.51500
O1261       O  0.49779409  0.01535814  0.93239708    -1.41100
C1262       C  0.98147999  0.40523005  0.99524328     1.10400
C1263       C  0.49423926  0.01563430  0.83100366     1.10500
C1264       C  0.55573081  0.45649582  0.89426346     1.10500
C1265       C  0.91705854  0.47656408  0.89693425     1.10400
O1266       O  0.57612856  0.02074359  0.71924149    -0.79200
O1267       O  0.96351213  0.07460174  0.66807931    -0.79200
O1268       O  0.55904085  0.12455270  0.65906377    -0.79200
O1269       O  0.01127489  0.52919194  0.77356989    -0.79200
O1270       O  0.50004108  0.09601050  0.62150439    -0.79300
O1271       O  0.53395644  0.48549950  0.75920185    -0.79200
O1272       O  0.92109521  0.02161437  0.71078901    -0.79200
O1273       O  0.59187932  0.08885675  0.70628983    -0.79200
C1274       C  0.60264724  0.06417100  0.72090353     1.10500
C1275       C  0.93873245  0.06152321  0.69709600     1.10400
C1276       C  0.53556507  0.13005358  0.63607501     1.10500
C1277       C  0.02387585  0.50832661  0.79323003     1.10400
O1278       O  0.98224015  0.42018438  0.70364052    -0.79200
O1279       O  0.96683463  0.99551280  0.58977409    -0.79300
O1280       O  0.57201138  0.02129741  0.64439226    -0.79200
O1281       O  0.92026811  0.45346063  0.68571586    -0.79200
O1282       O  0.91982632  0.49610795  0.63853175    -0.79200
O1283       O  0.55042070  0.47137455  0.64406598    -0.79200
O1284       O  0.94999881  0.43348519  0.74889367    -0.79200
O1285       O  0.54154132  0.06069886  0.59682456    -0.79200
Co1286     Co  0.54080847  0.47989245  0.69919690     1.51500
Co1287     Co  0.96887651  0.03380321  0.63340274     1.51700
Co1288     Co  0.56159196  0.07082610  0.65444436     1.51600
Co1289     Co  0.97082999  0.49603553  0.72710936     1.51500
O1290       O  0.50393730  0.03328458  0.68649312    -1.41100
C1291       C  0.95173667  0.40513838  0.72726634     1.10400
C1292       C  0.50612262  0.02931446  0.58007950     1.10500
C1293       C  0.58686422  0.50030783  0.62987611     1.10500
C1294       C  0.89976287  0.45975040  0.65838048     1.10400
C1295       C  0.68558379  0.36656662  0.83019518     0.31000
C1296       C  0.68786692  0.37631924  0.90999427     0.31000
C1297       C  0.66221806  0.38736266  0.84661616    -0.05200
C1298       C  0.66541783  0.32127968  0.85334344    -0.06000
C1299       C  0.73142473  0.39696427  0.84967540    -0.05900
C1300       C  0.66300600  0.39150119  0.88719471    -0.05200
C1301       C  0.66745930  0.32735988  0.89425234    -0.06000
C1302       C  0.73271117  0.40196604  0.89063941    -0.05900
C1303       C  0.64008548  0.40962607  0.89682754    -0.31300
N1304       N  0.62581360  0.41735312  0.86291359     0.15200
C1305       C  0.63974521  0.40466685  0.83185704    -0.31300
H1306       H  0.63418539  0.40801174  0.80101114     0.17200
C1307       C  0.64845584  0.28544982  0.91111470    -0.30300
N1308       N  0.63335304  0.25322607  0.88218118     0.15900
C1309       C  0.64382777  0.27417463  0.84648440    -0.30300
C1310       C  0.77564742  0.42315594  0.90283761    -0.30500
N1311       N  0.80018622  0.43260848  0.87032543     0.14400
H1312       H  0.78817947  0.43030931  0.93290477     0.17100
C1313       C  0.77353140  0.41598435  0.83800640    -0.30600
H1314       H  0.78416046  0.41591431  0.80833974     0.17100
H1315       H  0.63439483  0.25631180  0.81807202     0.17100
H1316       H  0.63538870  0.41811341  0.92630257     0.17200
H1317       H  0.64416767  0.27814833  0.94236257     0.17100
C1318       C  0.67817779  0.37343333  0.57895847     0.31000
C1319       C  0.67631717  0.36568019  0.65850720     0.31000
C1320       C  0.67400054  0.40815858  0.60196092    -0.05200
C1321       C  0.64085431  0.32632885  0.59434046    -0.06000
C1322       C  0.71844851  0.37913893  0.59823084    -0.05900
C1323       C  0.67303536  0.40394912  0.64293438    -0.05200
C1324       C  0.63961557  0.32272330  0.63571635    -0.06000
C1325       C  0.71731112  0.37485631  0.63894132    -0.05900
C1326       C  0.64966870  0.41995172  0.65703599    -0.31300
N1327       N  0.63808614  0.43545812  0.62663660     0.15200
C1328       C  0.65163001  0.42739994  0.59271403    -0.31300
H1329       H  0.64089405  0.42935438  0.56340671     0.17200
C1330       C  0.61939210  0.27680614  0.64344118    -0.30300
N1331       N  0.60661832  0.25254600  0.60914845     0.13900
C1332       C  0.62212551  0.28211409  0.57915941    -0.30300
C1333       C  0.75800000  0.38779449  0.65163902    -0.30500
N1334       N  0.78396404  0.40055228  0.61979086     0.14400
H1335       H  0.76906165  0.39201787  0.68210125     0.17100
C1336       C  0.76004763  0.39509211  0.58704995    -0.30600
H1337       H  0.77312661  0.40536296  0.55781446     0.17100
H1338       H  0.62293083  0.27227599  0.54888767     0.17100
H1339       H  0.63760385  0.41563823  0.68671700     0.17200
H1340       H  0.61874301  0.26201926  0.67136609     0.17100
C1341       C  0.71219292  0.40284089  0.72366160    -0.12400
C1342       C  0.67694717  0.36510432  0.70310988     0.09800
C1343       C  0.64203593  0.33036551  0.72492188    -0.12400
C1344       C  0.64576569  0.32948726  0.76579730    -0.12400
C1345       C  0.68365971  0.36447241  0.78581621     0.09800
C1346       C  0.71489500  0.40308347  0.76450866    -0.12400
H1347       H  0.73737202  0.43265722  0.70802733     0.13700
H1348       H  0.61095053  0.30497249  0.71118516     0.13700
H1349       H  0.61824779  0.30272983  0.78183393     0.13700
H1350       H  0.74083145  0.43430583  0.77914647     0.13700
C1351       C  0.71694115  0.41859780  0.51873791    -0.12400
C1352       C  0.67987456  0.38018719  0.53503360     0.09800
C1353       C  0.64452929  0.34961973  0.50982332    -0.12400
C1354       C  0.64630105  0.34939852  0.97275816    -0.12400
C1355       C  0.68519737  0.38110065  0.95366747     0.09800
C1356       C  0.71768347  0.42051515  0.97477147    -0.12400
H1357       H  0.74259682  0.44582111  0.53754739     0.13700
H1358       H  0.61295817  0.32386935  0.52102970     0.13700
H1359       H  0.61758196  0.32293833  0.95629456     0.13700
H1360       H  0.74453190  0.44971270  0.96003739     0.13700
C1361       C  0.54977518  0.17664553  0.62724037    -0.15500
C1362       C  0.58567548  0.20404268  0.60660858    -0.30700
H1363       H  0.53405447  0.19067036  0.64216073     0.13500
H1364       H  0.60095006  0.19019148  0.59051703     0.14100
C1365       C  0.83069787  0.42687727  0.62105064    -0.15500
C1366       C  0.85283281  0.42487027  0.65154389    -0.30700
H1367       H  0.84839258  0.45125285  0.59767215     0.13500
H1368       H  0.83549986  0.39900295  0.67389615     0.14100
C1369       C  0.60688812  0.44626521  0.63022816    -0.15500
C1370       C  0.61308351  0.48440667  0.61499085    -0.30700
H1371       H  0.58118579  0.42666360  0.65125522     0.13500
H1372       H  0.64132795  0.50695034  0.59732119     0.14100
C1373       C  0.60297534  0.17232656  0.87190140    -0.15500
C1374       C  0.60318123  0.20569216  0.89057882    -0.30700
H1375       H  0.62557271  0.18041382  0.84829966     0.13500
H1376       H  0.58169977  0.19721823  0.91532217     0.14100
C1377       C  0.86907258  0.45001618  0.89539585    -0.15500
C1378       C  0.84679579  0.45757258  0.86921047    -0.30700
H1379       H  0.85133370  0.42329123  0.91692484     0.13500
H1380       H  0.86384480  0.48166642  0.84559602     0.14100
C1381       C  0.60504919  0.44114820  0.86120197    -0.15500
C1382       C  0.56854221  0.42581195  0.88137280    -0.30700
H1383       H  0.62211397  0.47444627  0.84761353     0.13500
H1384       H  0.55118882  0.39170875  0.89350029     0.14100
C1385       C  0.90141406  0.08427210  0.74188089    -0.15500
C1386       C  0.92797378  0.09291584  0.71186784    -0.30700
H1387       H  0.89095627  0.05572524  0.76125697     0.13500
H1388       H  0.93952439  0.12327962  0.69459100     0.14100
C1389       C  0.90169570  0.32861811  0.75827924    -0.15500
C1390       C  0.91847851  0.35496321  0.72626690    -0.30700
H1391       H  0.90983778  0.34509856  0.78742205     0.13500
H1392       H  0.91290924  0.33861246  0.69744036     0.14100
C1393       C  0.66488362  0.06458054  0.74625985    -0.15500
C1394       C  0.64770364  0.08709212  0.73507344    -0.30700
H1395       H  0.64470022  0.02764611  0.75014089     0.13500
H1396       H  0.66928988  0.12408815  0.73166063     0.14100
C1397       C  0.90151483  0.04528431  0.99591717    -0.15500
C1398       C  0.91522129  0.08940147  0.99450439    -0.30700
H1399       H  0.86949847  0.02034153  0.00732362     0.13500
H1400       H  0.94580337  0.11419865  0.98068192     0.14100
C1401       C  0.92414875  0.32337376  0.98310609    -0.15500
C1402       C  0.95929248  0.35612426  0.00387075    -0.30700
H1403       H  0.91191522  0.33280489  0.95859869     0.13500
H1404       H  0.95616152  0.34940036  0.44852263     0.14100
C1405       C  0.66285186  0.10427418  0.97389794    -0.15500
C1406       C  0.68205832  0.09827309  0.00494294    -0.30700
H1407       H  0.68274615  0.13128983  0.95353322     0.13500
H1408       H  0.66317760  0.07294529  0.02696452     0.14100
C1409       C  0.81494146  0.18212321  0.85678079    -0.12400
C1410       C  0.81991377  0.15236037  0.83383428     0.09800
C1411       C  0.81487504  0.11423155  0.85196560    -0.12400
C1412       C  0.81647518  0.11283825  0.89284842    -0.12400
C1413       C  0.82216926  0.14915145  0.91580499     0.09800
C1414       C  0.81621781  0.18062361  0.89757099    -0.12400
H1415       H  0.81022395  0.20657905  0.84351086     0.13700
H1416       H  0.81004619  0.08577256  0.83472485     0.13700
H1417       H  0.81278061  0.08321472  0.90600207     0.13700
H1418       H  0.81387664  0.20496896  0.91493571     0.13700
C1419       C  0.86828865  0.19447174  0.64901540    -0.12400
C1420       C  0.82825988  0.16142323  0.66562752     0.09800
C1421       C  0.79670964  0.12411658  0.64156926    -0.12400
C1422       C  0.80178275  0.12470393  0.60094705    -0.12400
C1423       C  0.83879845  0.16214956  0.58378742     0.09800
C1424       C  0.87381012  0.19420960  0.60857264    -0.12400
H1425       H  0.89573196  0.21984127  0.66745567     0.13700
H1426       H  0.76900831  0.09362699  0.65378277     0.13700
H1427       H  0.77682138  0.09573310  0.58307207     0.13700
H1428       H  0.90548673  0.21888981  0.59700854     0.13700
C1429       C  0.84987193  0.66475599  0.45006991     0.31000
C1430       C  0.83535715  0.65046831  0.03081158     0.31000
C1431       C  0.86095149  0.63387134  0.46979003    -0.05200
C1432       C  0.88080008  0.71074093  0.47177494    -0.06000
C1433       C  0.80575073  0.64841503  0.46622879    -0.05900
C1434       C  0.85823269  0.62904639  0.01434486    -0.05200
C1435       C  0.86331368  0.70017506  0.01502567    -0.06000
C1436       C  0.79378398  0.62829529  0.00491771    -0.05900
C1437       C  0.87852575  0.60950397  0.02938576    -0.31300
N1438       N  0.90985812  0.62282163  0.49352889     0.15200
C1439       C  0.89402727  0.62945689  0.46040392    -0.31300
H1440       H  0.90853991  0.63527338  0.43167484     0.17200
C1441       C  0.88417729  0.74499088  0.02942212    -0.30300
N1442       N  0.90504112  0.77426539  0.99919215     0.13900
C1443       C  0.90903432  0.75572233  0.46145408    -0.30300
C1444       C  0.75045898  0.61113188  0.00992608    -0.30500
N1445       N  0.73995492  0.62918490  0.47899900     0.14400
H1446       H  0.73465316  0.60780757  0.03746666     0.17100
C1447       C  0.76744922  0.63774525  0.44966126    -0.30600
H1448       H  0.75984786  0.63598137  0.41838123     0.17100
H1449       H  0.91802082  0.76876122  0.43182464     0.17100
H1450       H  0.87957772  0.60139413  0.05988852     0.17200
H1451       H  0.88364338  0.75563126  0.05930218     0.17100
C1452       C  0.81790621  0.64428774  0.20042076     0.31000
C1453       C  0.82787415  0.65660711  0.27987144     0.31000
C1454       C  0.85102455  0.63768027  0.21950137    -0.05200
C1455       C  0.83105322  0.69129719  0.21602980    -0.06000
C1456       C  0.77634041  0.61163807  0.22327306    -0.05900
C1457       C  0.85715107  0.64463156  0.25984803    -0.05200
C1458       C  0.83763170  0.69915754  0.25655218    -0.06000
C1459       C  0.78172483  0.61767290  0.26458268    -0.05900
C1460       C  0.88057972  0.62700004  0.27154590    -0.31300
N1461       N  0.88725391  0.60883312  0.23930658     0.15200
C1462       C  0.86843972  0.61423280  0.20760552    -0.31300
H1463       H  0.86480151  0.59914009  0.17858310     0.17200
C1464       C  0.85666841  0.74629565  0.26208043    -0.30300
N1465       N  0.85882809  0.76491877  0.22641966     0.13900
C1466       C  0.84320904  0.73144028  0.19840956    -0.30300
C1467       C  0.74113187  0.60005531  0.27987529    -0.30500
N1468       N  0.71180585  0.58449617  0.24960692     0.14400
H1469       H  0.73415181  0.60229004  0.31048040     0.17100
C1470       C  0.73302442  0.59323560  0.21518334    -0.30600
H1471       H  0.71822237  0.58931246  0.18645520     0.17100
H1472       H  0.84382034  0.73691916  0.16686856     0.17100
H1473       H  0.88880619  0.62373476  0.30149701     0.17200
H1474       H  0.87207992  0.76674431  0.28872502     0.17100
O1475       O  0.59241303  0.51495216  0.49525823    -0.79200
O1476       O  0.00102439  0.58832626  0.47822115    -0.79200
O1477       O  0.58607030  0.59081206  0.37995001    -0.79200
O1478       O  0.94880834  0.95782801  0.01249760    -0.79200
O1479       O  0.55905209  0.61363455  0.42234490    -0.79300
O1480       O  0.53584430  0.03990057  0.01248281    -0.79200
O1481       O  0.94017117  0.51984023  0.48591026    -0.79200
O1482       O  0.60500396  0.56510719  0.44944426    -0.79200
C1483       C  0.61846424  0.55261175  0.47883046     1.10500
C1484       C  0.96341653  0.56288796  0.49229923     1.10400
C1485       C  0.58730046  0.62335351  0.39745822     1.10500
C1486       C  0.98347483  0.99213067  0.02914208     1.10400
O1487       O  0.97578569  0.92345646  0.47805031    -0.79200
O1488       O  0.01927694  0.56920362  0.36397844    -0.79300
O1489       O  0.56814386  0.99419706  0.39926578    -0.79200
O1490       O  0.91129670  0.93270449  0.40079747    -0.79200
O1491       O  0.91422642  0.99434980  0.38400734    -0.79200
O1492       O  0.50498172  0.94511547  0.42455124    -0.79200
O1493       O  0.90608845  0.90268537  0.47693110    -0.79200
O1494       O  0.51760470  0.49791306  0.35694676    -0.79200
Co1495     Co  0.51643318  0.98967949  0.46851757     1.51500
Co1496     Co  0.01173562  0.57647430  0.42383589     1.51700
Co1497     Co  0.55620320  0.52794815  0.40493837     1.51600
Co1498     Co  0.94244501  0.95902966  0.45254061     1.51500
O1499       O  0.50486110  0.51696439  0.43593333    -1.41100
C1500       C  0.93429408  0.89408847  0.48474193     1.10400
C1501       C  0.50994033  0.52161365  0.33514331     1.10500
C1502       C  0.53786498  0.95310171  0.40611773     1.10500
C1503       C  0.89310585  0.95073812  0.38592285     1.10400
O1504       O  0.57681004  0.51159617  0.22658933    -0.79200
O1505       O  0.99685682  0.58897377  0.21163611    -0.79200
O1506       O  0.54262051  0.59861293  0.15973471    -0.79200
O1507       O  0.98616834  0.02365532  0.25646232    -0.79200
O1508       O  0.48494201  0.56257347  0.12129465    -0.79300
O1509       O  0.52538136  0.00848552  0.26567196    -0.79200
O1510       O  0.93655530  0.52539471  0.22976794    -0.79200
O1511       O  0.58646965  0.57598149  0.20730582    -0.79200
C1512       C  0.60049665  0.55522858  0.22432551     1.10500
C1513       C  0.96068297  0.56898822  0.22823890     1.10400
C1514       C  0.51909884  0.59987579  0.13362286     1.10500
C1515       C  0.99442642  0.00111212  0.27920465     1.10400
O1516       O  0.94298926  0.90321233  0.19794142    -0.79200
O1517       O  0.99918773  0.54212894  0.10412897    -0.79300
O1518       O  0.57682213  0.51175745  0.14862724    -0.79200
O1519       O  0.89197498  0.94381957  0.17274579    -0.79200
O1520       O  0.89346834  0.98121259  0.11974746    -0.79200
O1521       O  0.54057021  0.97250874  0.15690852    -0.79200
O1522       O  0.91822222  0.92810915  0.24086597    -0.79200
O1523       O  0.52980313  0.53111636  0.09914262    -0.79200
Co1524     Co  0.53207246  0.99214211  0.20848031     1.51500
Co1525     Co  0.99933069  0.56337416  0.16037813     1.51700
Co1526     Co  0.55507559  0.55177348  0.15619230     1.51600
Co1527     Co  0.94389582  0.98800122  0.21175611     1.51500
O1528       O  0.50008941  0.50566152  0.18719014    -1.41100
C1529       C  0.91692512  0.89476541  0.22499312     1.10400
C1530       C  0.49379219  0.49668361  0.08450880     1.10500
C1531       C  0.57534867  0.99738951  0.13843291     1.10500
C1532       C  0.87224867  0.94814920  0.14336370     1.10400
C1533       C  0.66251461  0.85824627  0.32847810     0.31000
C1534       C  0.66231919  0.85575761  0.40820025     0.31000
C1535       C  0.63423778  0.87126816  0.34888909    -0.05200
C1536       C  0.64685309  0.81118270  0.34606418    -0.06000
C1537       C  0.70802526  0.89022215  0.34887973    -0.05900
C1538       C  0.63372103  0.86932371  0.38936070    -0.05200
C1539       C  0.64718153  0.81004179  0.38698963    -0.06000
C1540       C  0.70777580  0.88908068  0.39026223    -0.05900
C1541       C  0.60880628  0.88443361  0.40269985    -0.31300
N1542       N  0.59452508  0.89622795  0.37112104     0.15200
C1543       C  0.61058068  0.88887495  0.33810730    -0.31300
H1544       H  0.60731397  0.89799166  0.30852521     0.17200
C1545       C  0.63715627  0.76732361  0.39712876    -0.30300
N1546       N  0.62942082  0.74203128  0.36348286     0.15900
C1547       C  0.63510813  0.76850928  0.33214814    -0.30300
C1548       C  0.74930609  0.90318512  0.40274089    -0.30500
N1549       N  0.77489784  0.91354756  0.37091643     0.14400
H1550       H  0.75976656  0.90455670  0.43301474     0.17100
C1551       C  0.74975281  0.90445896  0.33812673    -0.30600
H1552       H  0.76080378  0.90623054  0.30835138     0.17100
H1553       H  0.63151319  0.75763599  0.30145581     0.17100
H1554       H  0.60441927  0.88992658  0.43332707     0.17200
H1555       H  0.63521442  0.75532167  0.42680231     0.17100
C1556       C  0.64077639  0.84427517  0.07716777     0.31000
C1557       C  0.64717002  0.84763390  0.15719490     0.31000
C1558       C  0.63388530  0.87828980  0.09797049    -0.05200
C1559       C  0.60805429  0.79794314  0.09745316    -0.06000
C1560       C  0.68482587  0.85749950  0.09465821    -0.05900
C1561       C  0.63734146  0.87979819  0.13877223    -0.05200
C1562       C  0.61160686  0.80035789  0.13898612    -0.06000
C1563       C  0.68792346  0.85888397  0.13561173    -0.05900
C1564       C  0.61979494  0.90213703  0.15289314    -0.31300
N1565       N  0.60670868  0.91538211  0.12179914     0.15200
C1566       C  0.61421192  0.90024434  0.08794365    -0.31300
H1567       H  0.60250837  0.90117649  0.05880264     0.17200
C1568       C  0.59762194  0.75718869  0.15141400    -0.30300
N1569       N  0.58321866  0.72789732  0.12016852     0.13900
C1570       C  0.59169676  0.75248772  0.08695927    -0.30300
C1571       C  0.73043598  0.87604478  0.14570330    -0.30500
N1572       N  0.75345737  0.88623926  0.11204183     0.14400
H1573       H  0.74437624  0.88394779  0.17530754     0.17100
C1574       C  0.72586418  0.87466990  0.08073429    -0.30600
H1575       H  0.73572324  0.88078867  0.05029392     0.17100
H1576       H  0.59113170  0.73959785  0.05764912     0.17100
H1577       H  0.61350384  0.90504614  0.18354715     0.17200
H1578       H  0.60234137  0.74861299  0.18075019     0.17100
C1579       C  0.68698912  0.89060871  0.22031918    -0.12400
C1580       C  0.65033068  0.85202112  0.20167602     0.09800
C1581       C  0.61509646  0.82066284  0.22496347    -0.12400
C1582       C  0.61941768  0.82351235  0.26578936    -0.12400
C1583       C  0.65872449  0.85813075  0.28427376     0.09800
C1584       C  0.69134108  0.89354382  0.26133193    -0.12400
H1585       H  0.71233160  0.91852645  0.20314547     0.13700
H1586       H  0.58393048  0.79417938  0.21198074     0.13700
H1587       H  0.59202373  0.79827175  0.28308536     0.13700
H1588       H  0.71964367  0.92401300  0.27476273     0.13700
C1589       C  0.67319676  0.88526541  0.01385295    -0.12400
C1590       C  0.63908922  0.84648874  0.03284469     0.09800
C1591       C  0.60358771  0.81192703  0.00999098    -0.12400
C1592       C  0.62446981  0.81807030  0.47116344    -0.12400
C1593       C  0.65951019  0.85611798  0.45221108     0.09800
C1594       C  0.68428779  0.89827608  0.47297728    -0.12400
H1595       H  0.69878874  0.91487561  0.03075590     0.13700
H1596       H  0.57413729  0.78471938  0.02348361     0.13700
H1597       H  0.60036323  0.78712897  0.45472946     0.13700
H1598       H  0.70802408  0.92961633  0.45819684     0.13700
C1599       C  0.53173768  0.64484195  0.11818601    -0.15500
C1600       C  0.57271348  0.68230451  0.12336113    -0.30700
H1601       H  0.50708855  0.64792993  0.10465509     0.13500
H1602       H  0.59676860  0.67879490  0.13773328     0.14100
C1603       C  0.80017941  0.91360513  0.10981282    -0.15500
C1604       C  0.82480792  0.91417109  0.13923797    -0.30700
H1605       H  0.81554729  0.93578267  0.08465990     0.13500
H1606       H  0.80906659  0.89022114  0.16320929     0.14100
C1607       C  0.57991912  0.93193476  0.12601970    -0.15500
C1608       C  0.59568550  0.97619015  0.11997325    -0.30700
H1609       H  0.54997530  0.91058409  0.14208217     0.13500
H1610       H  0.62707717  0.99828900  0.10628622     0.14100
C1611       C  0.61958613  0.67254432  0.38963413    -0.15500
C1612       C  0.61194000  0.69354881  0.36112088    -0.30700
H1613       H  0.64242913  0.69328712  0.41353730     0.13500
H1614       H  0.58844923  0.67274674  0.33756474     0.14100
C1615       C  0.84496987  0.92150879  0.37682238    -0.15500
C1616       C  0.82205914  0.94016701  0.37200092    -0.30700
H1617       H  0.82745968  0.88449518  0.37857782     0.13500
H1618       H  0.83947022  0.97724439  0.37121041     0.14100
C1619       C  0.57733854  0.92410351  0.37273185    -0.15500
C1620       C  0.54543097  0.91645225  0.39738175    -0.30700
H1621       H  0.59269592  0.95428734  0.35433443     0.13500
H1622       H  0.52792461  0.88507727  0.41422716     0.14100
C1623       C  0.90194471  0.57923917  0.23911986    -0.15500
C1624       C  0.94450213  0.59666192  0.24096255    -0.30700
H1625       H  0.87878904  0.54346146  0.23028063     0.13500
H1626       H  0.96777288  0.63343353  0.24573931     0.14100
C1627       C  0.88385475  0.81258177  0.21617202    -0.15500
C1628       C  0.88749653  0.84661616  0.23821205    -0.30700
H1629       H  0.89962707  0.82090587  0.18768729     0.13500
H1630       H  0.87008052  0.83921775  0.26564303     0.14100
C1631       C  0.66591805  0.56325780  0.25268090    -0.15500
C1632       C  0.64724251  0.58189739  0.23523667    -0.30700
H1633       H  0.64603293  0.52936719  0.26542303     0.13500
H1634       H  0.66806052  0.61635799  0.22373384     0.14100
C1635       C  0.94249567  0.58312779  0.51081759    -0.15500
C1636       C  0.94582398  0.61883831  0.49365886    -0.30700
H1637       H  0.91525701  0.56157042  0.52983017     0.13500
H1638       H  0.96993818  0.63699037  0.47105147     0.14100
C1639       C  0.94180699  0.83082106  0.49368901    -0.15500
C1640       C  0.91905260  0.84873189  0.49983726    -0.30700
H1641       H  0.97309846  0.85106440  0.47953638     0.13500
H1642       H  0.96153311  0.83704122  0.94876320     0.14100
C1643       C  0.66372485  0.58106699  0.49370687    -0.15500
C1644       C  0.69566711  0.61332589  0.47152716    -0.30700
H1645       H  0.67172910  0.57030758  0.52036639     0.13500
H1646       H  0.68750693  0.62131664  0.44329507     0.14100
C1647       C  0.83748767  0.69538850  0.34668198    -0.12400
C1648       C  0.83190198  0.65893738  0.32420810     0.09800
C1649       C  0.82826381  0.62225294  0.34387110    -0.12400
C1650       C  0.83728742  0.62553287  0.38406873    -0.12400
C1651       C  0.84829693  0.66484961  0.40582072     0.09800
C1652       C  0.84559512  0.69831149  0.38705071    -0.12400
H1653       H  0.83311714  0.72019651  0.33411996     0.13700
H1654       H  0.81891066  0.59109663  0.32793179     0.13700
H1655       H  0.83377355  0.59638969  0.39820272     0.13700
H1656       H  0.84734895  0.72547360  0.40390498     0.13700
C1657       C  0.86040388  0.67512285  0.13958528    -0.12400
C1658       C  0.82026629  0.64225720  0.15636568     0.09800
C1659       C  0.78667603  0.60742094  0.13220121    -0.12400
C1660       C  0.79181342  0.60894608  0.09144684    -0.12400
C1661       C  0.82988030  0.64593148  0.07458548     0.09800
C1662       C  0.86532715  0.67650751  0.09927927    -0.12400
H1663       H  0.88816884  0.70013808  0.15797359     0.13700
H1664       H  0.75750683  0.57855841  0.14435036     0.13700
H1665       H  0.76631332  0.58051097  0.07347217     0.13700
H1666       H  0.89682453  0.70187904  0.08749543     0.13700
C1667       C  0.84765328  0.65721261  0.95179812     0.31000
C1668       C  0.84428351  0.66197364  0.52967373     0.31000
C1669       C  0.86505351  0.63325513  0.97399723    -0.05200
C1670       C  0.87036553  0.70311185  0.97469288    -0.06000
C1671       C  0.80047539  0.63181066  0.96462129    -0.05900
C1672       C  0.85815312  0.63219087  0.51130353    -0.05200
C1673       C  0.87698396  0.70982700  0.51255244    -0.06000
C1674       C  0.80213931  0.64679917  0.50677445    -0.05900
C1675       C  0.88910255  0.62524357  0.52486128    -0.31300
N1676       N  0.89876289  0.60373340  0.99924883     0.15200
C1677       C  0.89118933  0.61874729  0.96557219    -0.31300
H1678       H  0.90402085  0.61912315  0.93699545     0.17200
C1679       C  0.90049263  0.75498691  0.52589938    -0.30300
N1680       N  0.92036989  0.78226130  0.49453358     0.13900
C1681       C  0.89703573  0.74882600  0.96579037    -0.30300
C1682       C  0.76063410  0.63493309  0.51427301    -0.30500
N1683       N  0.73113874  0.60314278  0.97373548     0.14400
H1684       H  0.74678324  0.63182465  0.54288391     0.17100
C1685       C  0.76152318  0.61641384  0.94588472    -0.30600
H1686       H  0.75600772  0.61662418  0.91443279     0.17100
H1687       H  0.90844380  0.76253083  0.93670684     0.17100
H1688       H  0.89929561  0.62741783  0.55534573     0.17200
H1689       H  0.90123212  0.76733245  0.55546823     0.17100
C1690       C  0.83972393  0.66000449  0.70106222     0.31000
C1691       C  0.84614856  0.65835244  0.78101493     0.31000
C1692       C  0.85654844  0.63270838  0.71686093    -0.05200
C1693       C  0.86960540  0.70689759  0.72206013    -0.06000
C1694       C  0.79724523  0.63999470  0.72312291    -0.05900
C1695       C  0.86040561  0.63192803  0.75766822    -0.05200
C1696       C  0.87387272  0.70621036  0.76277078    -0.06000
C1697       C  0.80049872  0.63842776  0.76399142    -0.05900
C1698       C  0.88392657  0.61374894  0.76496284    -0.31300
N1699       N  0.89242004  0.60222035  0.72972997     0.15200
C1700       C  0.87642162  0.61415279  0.70022243    -0.31300
H1701       H  0.88078999  0.61142056  0.66897894     0.17200
C1702       C  0.90249411  0.75116777  0.77581334    -0.30300
N1703       N  0.91379550  0.77866359  0.74426895     0.13900
C1704       C  0.89383922  0.75201400  0.71134250    -0.30300
C1705       C  0.75939266  0.61738244  0.77872895    -0.30500
N1706       N  0.73195774  0.60811150  0.74796354     0.14400
H1707       H  0.75007530  0.60932339  0.80934269     0.17100
C1708       C  0.75459663  0.62228089  0.71407227    -0.30600
H1709       H  0.74042241  0.61916891  0.68521609     0.17100
H1710       H  0.89645342  0.76469546  0.68183298     0.17100
H1711       H  0.89677168  0.61203878  0.79317318     0.17200
H1712       H  0.91321585  0.76333355  0.80601189     0.17100
O1713       O  0.57944449  0.49476267  0.97168195    -0.79200
O1714       O  0.99518316  0.57617323  0.93965791    -0.79200
O1715       O  0.57783929  0.60657270  0.91037109    -0.79200
O1716       O  0.96159002  0.98137830  0.50943645    -0.79200
O1717       O  0.52648562  0.58547351  0.86537903    -0.79300
O1718       O  0.53612689  0.03158982  0.51624821    -0.79200
O1719       O  0.94835943  0.52361218  0.97770896    -0.79200
O1720       O  0.60091801  0.56420806  0.95784093    -0.79200
C1721       C  0.60889946  0.53728292  0.97245700     1.10500
C1722       C  0.96725399  0.56358591  0.96530459     1.10400
C1723       C  0.55870932  0.61647487  0.88642464     1.10500
C1724       C  0.99818075  0.00642577  0.52640158     1.10400
O1725       O  0.99345007  0.93173040  0.98462620    -0.79200
O1726       O  0.99798918  0.49358082  0.86098524    -0.79300
O1727       O  0.57846907  0.01128668  0.88078740    -0.79200
O1728       O  0.89236005  0.92781447  0.90356635    -0.79200
O1729       O  0.90516358  0.99562804  0.89170520    -0.79200
O1730       O  0.54760584  0.96803936  0.93199927    -0.79200
O1731       O  0.93743141  0.89986910  0.94359413    -0.79200
O1732       O  0.56547159  0.54783796  0.84298089    -0.79200
Co1733     Co  0.53267451  0.00266464  0.96820510     1.51500
Co1734     Co  0.99530963  0.53167947  0.90430300     1.51700
Co1735     Co  0.57818175  0.55244911  0.90305214     1.51600
Co1736     Co  0.92433339  0.94526500  0.95494110     1.51500
O1737       O  0.51571739  0.51390490  0.92316290    -1.41100
C1738       C  0.96162015  0.89625150  0.96708068     1.10400
C1739       C  0.53198937  0.51750010  0.82252270     1.10500
C1740       C  0.56948102  0.97785495  0.90077125     1.10500
C1741       C  0.88092734  0.95208542  0.88864539     1.10400
O1742       O  0.60348235  0.53053200  0.71044304    -0.79200
O1743       O  0.96103486  0.54463183  0.70608623    -0.79200
O1744       O  0.55694246  0.61537927  0.66462268    -0.79200
O1745       O  0.94548671  0.98341702  0.76266948    -0.79200
O1746       O  0.49994145  0.58182513  0.62623249    -0.79300
O1747       O  0.52048633  0.01818843  0.76642828    -0.79200
O1748       O  0.92729005  0.49521405  0.75510701    -0.79200
O1749       O  0.60678161  0.59417016  0.70182724    -0.79200
C1750       C  0.62247331  0.57360597  0.71567348     1.10500
C1751       C  0.93589296  0.53025971  0.73637998     1.10400
C1752       C  0.53341256  0.61860770  0.64018528     1.10500
C1753       C  0.98100886  0.00037404  0.78084867     1.10400
O1754       O  0.99210807  0.92673146  0.73515072    -0.79200
O1755       O  0.98470342  0.49000256  0.61161605    -0.79300
O1756       O  0.60336991  0.54290786  0.63389838    -0.79200
O1757       O  0.90340501  0.95087127  0.65091537    -0.79200
O1758       O  0.90724113  0.00674387  0.62254641    -0.79200
O1759       O  0.50878338  0.96150896  0.66062422    -0.79200
O1760       O  0.93419487  0.91611899  0.70328643    -0.79200
O1761       O  0.54751971  0.55849584  0.59493889    -0.79200
Co1762     Co  0.51156477  0.98931812  0.71296953     1.51500
Co1763     Co  0.97404164  0.51403127  0.66063897     1.51700
Co1764     Co  0.57523463  0.57488020  0.65087154     1.51600
Co1765     Co  0.93290182  0.97328403  0.70391086     1.51500
O1766       O  0.52310591  0.52084382  0.67864519    -1.41100
C1767       C  0.95337589  0.90024624  0.72141074     1.10400
C1768       C  0.51226500  0.52301597  0.58021823     1.10500
C1769       C  0.54449154  0.97801687  0.64408437     1.10500
C1770       C  0.88414713  0.96661530  0.63448997     1.10400
C1771       C  0.65815596  0.85416101  0.82658792     0.31000
C1772       C  0.64843015  0.84744568  0.90599620     0.31000
C1773       C  0.65086936  0.88791873  0.84628783    -0.05200
C1774       C  0.61994481  0.80688231  0.84096994    -0.06000
C1775       C  0.69748744  0.86211594  0.85046898    -0.05900
C1776       C  0.64604119  0.88439121  0.88655917    -0.05200
C1777       C  0.61496512  0.80367363  0.88201232    -0.06000
C1778       C  0.69181225  0.85791731  0.89127136    -0.05900
C1779       C  0.63707459  0.91488033  0.89859133    -0.31300
N1780       N  0.63560804  0.93641464  0.86633310     0.15200
C1781       C  0.64463950  0.92077552  0.83398400    -0.31300
H1782       H  0.64363566  0.93011040  0.80382967     0.17200
C1783       C  0.59572662  0.75814210  0.89049744    -0.30300
N1784       N  0.58667824  0.73327319  0.85662549     0.15900
C1785       C  0.60235860  0.76273628  0.82629404    -0.30300
C1786       C  0.72956612  0.86729719  0.90837034    -0.30500
N1787       N  0.75855383  0.87824467  0.87953673     0.14400
H1788       H  0.73619622  0.86783087  0.93970131     0.17100
C1789       C  0.73947469  0.87506719  0.84396279    -0.30600
H1790       H  0.75513435  0.88184824  0.81580617     0.17100
H1791       H  0.60513958  0.75356285  0.79636386     0.17100
H1792       H  0.62965679  0.91930304  0.92844615     0.17200
H1793       H  0.59220154  0.74464541  0.91970816     0.17100
C1794       C  0.65043011  0.86228191  0.57779137     0.31000
C1795       C  0.65934310  0.87342804  0.65777157     0.31000
C1796       C  0.63398161  0.88937717  0.59636857    -0.05200
C1797       C  0.62666062  0.81674589  0.60123512    -0.06000
C1798       C  0.69737597  0.88790482  0.59467876    -0.05900
C1799       C  0.63819772  0.89449769  0.63718264    -0.05200
C1800       C  0.63189257  0.82346155  0.64201616    -0.06000
C1801       C  0.70215426  0.89349101  0.63554230    -0.05900
C1802       C  0.62262617  0.91991014  0.64853133    -0.31300
N1803       N  0.60937565  0.93073396  0.61565965     0.15200
C1804       C  0.61660482  0.91279317  0.58348037    -0.31300
H1805       H  0.61019486  0.91692142  0.55312380     0.17200
C1806       C  0.61552831  0.78164052  0.65893370    -0.30300
N1807       N  0.59902814  0.74879430  0.63021701     0.13900
C1808       C  0.60677710  0.76958260  0.59471184    -0.30300
C1809       C  0.74590495  0.91428927  0.64412279    -0.30500
N1810       N  0.76747588  0.92333462  0.60982163     0.14400
H1811       H  0.76164845  0.92179133  0.67267905     0.17100
C1812       C  0.73830113  0.90717972  0.57939473    -0.30600
H1813       H  0.74639197  0.90856594  0.54864532     0.17100
H1814       H  0.60209342  0.75204019  0.56676249     0.17100
H1815       H  0.62218252  0.93098417  0.67840307     0.17200
H1816       H  0.61786240  0.77569743  0.68989428     0.17100
C1817       C  0.69803195  0.90426717  0.72530970    -0.12400
C1818       C  0.65993668  0.87658303  0.70225596     0.09800
C1819       C  0.62056534  0.84801985  0.72148324    -0.12400
C1820       C  0.62062880  0.83917088  0.76113600    -0.12400
C1821       C  0.66000946  0.86012459  0.78279747     0.09800
C1822       C  0.69814897  0.89581176  0.76538419    -0.12400
H1823       H  0.72688478  0.93328405  0.71334494     0.13700
H1824       H  0.58991158  0.82978954  0.70512558     0.13700
H1825       H  0.58962845  0.81610778  0.77481004     0.13700
H1826       H  0.72757326  0.91815754  0.78282098     0.13700
C1827       C  0.67796879  0.90061189  0.51292933    -0.12400
C1828       C  0.64842301  0.86046424  0.53332993     0.09800
C1829       C  0.61917321  0.82010145  0.51151814    -0.12400
C1830       C  0.60531912  0.81298860  0.96896752    -0.12400
C1831       C  0.64335087  0.84740206  0.95020263     0.09800
C1832       C  0.67593670  0.88518742  0.97298173    -0.12400
H1833       H  0.69799150  0.93349826  0.52845090     0.13700
H1834       H  0.59140950  0.79073611  0.52493444     0.13700
H1835       H  0.57640270  0.78731555  0.95241242     0.13700
H1836       H  0.70373769  0.91443309  0.95910000     0.13700
C1837       C  0.54659565  0.66483949  0.62709081    -0.15500
C1838       C  0.58596680  0.70270511  0.63781178    -0.30700
H1839       H  0.52439023  0.66798789  0.60897321     0.13500
H1840       H  0.60718229  0.69908807  0.65705004     0.14100
C1841       C  0.81380070  0.94729006  0.60652155    -0.15500
C1842       C  0.83637885  0.93958225  0.63239142    -0.30700
H1843       H  0.83021627  0.97131027  0.58281733     0.13500
H1844       H  0.81898747  0.91289477  0.65388151     0.14100
C1845       C  0.59460881  0.96037828  0.61562033    -0.15500
C1846       C  0.55609512  0.94626151  0.63104970    -0.30700
H1847       H  0.61710958  0.99594964  0.60726257     0.13500
H1848       H  0.53423651  0.91034981  0.63882738     0.14100
C1849       C  0.57566574  0.66520560  0.88428352    -0.15500
C1850       C  0.56893285  0.68496191  0.85424270    -0.30700
H1851       H  0.59708954  0.68656884  0.90872787     0.13500
H1852       H  0.55102470  0.66502241  0.82776987     0.14100
C1853       C  0.83674258  0.92991468  0.87102777    -0.15500
C1854       C  0.80245301  0.89243297  0.88739714    -0.30700
H1855       H  0.83121411  0.94870212  0.84956028     0.13500
H1856       H  0.80814075  0.87711077  0.91218662     0.14100
C1857       C  0.61817091  0.96323070  0.86638638    -0.15500
C1858       C  0.58410721  0.94946309  0.88933682    -0.30700
H1859       H  0.63362059  0.99468335  0.84978049     0.13500
H1860       H  0.56890717  0.91705331  0.90430741     0.14100
C1861       C  0.91684190  0.58348876  0.72302960    -0.15500
C1862       C  0.91708876  0.55497397  0.74850421    -0.30700
H1863       H  0.93155296  0.58895621  0.69431346     0.13500
H1864       H  0.89977495  0.54648247  0.77602493     0.14100
C1865       C  0.93967224  0.82788515  0.74595400    -0.15500
C1866       C  0.93021397  0.85042059  0.72144006    -0.30700
H1867       H  0.96495582  0.84636806  0.76871277     0.13500
H1868       H  0.90226973  0.83110956  0.70135026     0.14100
C1869       C  0.68580359  0.58346464  0.74914938    -0.15500
C1870       C  0.66664313  0.60178149  0.73253604    -0.30700
H1871       H  0.66695269  0.54766535  0.75755953     0.13500
H1872       H  0.68639747  0.63804715  0.72550385     0.14100
C1873       C  0.95392536  0.59401945  0.97662509    -0.15500
C1874       C  0.92101262  0.58147590  0.00105973    -0.30700
H1875       H  0.96771841  0.62531503  0.96010262     0.13500
H1876       H  0.90798594  0.55149710  0.01923132     0.14100
C1877       C  0.92622627  0.82333198  0.00115368    -0.15500
C1878       C  0.95262884  0.85072413  0.97253802    -0.30700
H1879       H  0.91773371  0.83783506  0.02464314     0.13500
H1880       H  0.88590585  0.82679185  0.51000554     0.14100
C1881       C  0.65349467  0.55500565  0.98582081    -0.15500
C1882       C  0.68728800  0.58830965  0.96538470    -0.30700
H1883       H  0.65866416  0.53771308  0.00916435     0.13500
H1884       H  0.68114516  0.60163000  0.93930940     0.14100
C1885       C  0.84485961  0.69014605  0.84676007    -0.12400
C1886       C  0.84740860  0.65780902  0.82517295     0.09800
C1887       C  0.84453760  0.62185461  0.84523999    -0.12400
C1888       C  0.84609704  0.62247236  0.88616856    -0.12400
C1889       C  0.85068541  0.65910548  0.90775576     0.09800
C1890       C  0.84646872  0.69079418  0.88761311    -0.12400
H1891       H  0.84079197  0.71446706  0.83205373     0.13700
H1892       H  0.83884033  0.59202339  0.82971297     0.13700
H1893       H  0.84141296  0.59299328  0.90067933     0.13700
H1894       H  0.84251039  0.71485920  0.90328768     0.13700
C1895       C  0.87896584  0.68901666  0.63749129    -0.12400
C1896       C  0.83942149  0.66028752  0.65662504     0.09800
C1897       C  0.80328474  0.62581164  0.63408842    -0.12400
C1898       C  0.80472392  0.62586084  0.59300508    -0.12400
C1899       C  0.84238529  0.66010494  0.57395475     0.09800
C1900       C  0.88045671  0.68892172  0.59670368    -0.12400
H1901       H  0.90919368  0.71091461  0.65405731     0.13700
H1902       H  0.77470952  0.59784925  0.64782002     0.13700
H1903       H  0.77670283  0.59849298  0.57634581     0.13700
H1904       H  0.91162697  0.71104239  0.58309246     0.13700
loop_ 
_geom_bond_atom_site_label_1 
_geom_bond_atom_site_label_2 
_geom_bond_distance 
_geom_bond_site_symmetry_2 
_ccdc_geom_bond_type 
C1            C3   1.537       .  S
C1            C5   1.517       .  S
C1            C4   1.530       .  S
C1          C223   1.492       .  S
C2            C6   1.529       .  S
C2            C8   1.531       .  S
C2            C7   1.547       .  S
C2          C233   1.502       .  S
C3           C11   1.381       .  A
C3          C244   1.399       .  A
C4           C15   1.373       .  A
C4          C245   1.385       .  A
C5           C19   1.372       .  A
C5          C246   1.376       .  A
C6            C9   1.381       .  A
C6          C241   1.409   1_554  A
C7           C13   1.380       .  A
C7          C242   1.392   1_554  A
C8           C16   1.378       .  A
C8          C243   1.382   1_554  A
C9           H22   1.081       .  S
C9          N248   1.347   1_554  A
N10          C11   1.356       .  A
N10         C247   1.363       .  A
N10         C208   1.445       .  S
C11          H12   1.081       .  S
C13          H23   1.082       .  S
C13          N14   1.349   1_554  A
N14         C253   1.355       .  A
N14         C449   1.429       .  S
C15          H21   1.082       .  S
C15         N252   1.347       .  A
C16          H18   1.082       .  S
C16         N255   1.348   1_554  A
N17          C19   1.347       .  A
N17         C254   1.365       .  A
N17         C216   1.440       .  S
C19          H20   1.083       .  S
C24          C26   1.522       .  S
C24          C28   1.534       .  S
C24          C27   1.540       .  S
C24         C230   1.497       .  S
C25          C29   1.534       .  S
C25          C31   1.532       .  S
C25          C30   1.561       .  S
C25         C220   1.490       .  S
C26          C34   1.369       .  A
C26          C29   1.375       .  A
C27          C38   1.372       .  A
C27          C30   1.395       .  A
C28          C42   1.379       .  A
C28          C31   1.388       .  A
C29          C32   1.385       .  A
C30          C36   1.401       .  A
C31          C39   1.378       .  A
C32          H45   1.080       .  S
C32          N33   1.351       .  A
N33          C34   1.356       .  A
N33         C195   1.432       .  S
C34          H35   1.084       .  S
C36          H46   1.080       .  S
C36          N37   1.365       .  A
N37          C38   1.354       .  A
N37         C199   1.446       .  S
C38          H44   1.084       .  S
C39          H41   1.083       .  S
C39          N40   1.352       .  A
N40          C42   1.353       .  A
N40         C203   1.428       .  S
C42          H43   1.083       .  S
O47          C55   1.276   1_565  A
O47        Co543   1.909       .  S
O48          C56   1.263       .  A
O48         Co68   1.997       .  S
O49          C57   1.279       .  A
O49         Co69   2.033       .  S
O50          C58   1.270       .  A
O50        Co308   1.950   1_554  S
O51          C57   1.267       .  A
O51       Co1020   1.969   1_455  S
O52        C1010   1.262       .  A
O52        Co305   2.013   1_554  S
O53          C56   1.270   1_565  A
O53        Co546   2.027       .  S
O54          C55   1.304       .  A
O54         Co69   2.107       .  S
C55         C215   1.489       .  S
C56         C207   1.490       .  S
C57         C183   1.490       .  S
C58        O1004   1.303       .  A
C58        C1530   1.528       .  S
O59          C72   1.262       .  A
O59       Co1019   2.024       .  S
O60        C1025   1.282       .  A
O60         Co68   2.080       .  S
O61          C74   1.273       .  A
O61        Co545   1.913       .  S
O62          C75   1.263       .  A
O62         Co70   1.965       .  S
O63          C75   1.270       .  A
O63        Co544   2.011       .  S
O64          C74   1.291       .  A
O64         Co67   2.087       .  S
O65          C72   1.256       .  A
O65         Co70   1.972       .  S
O66          C73   1.270   1_465  A
O66         Co69   2.019   1_565  S
Co67        O523   1.882       .  S
Co67        O290   1.991       .  S
Co67       O1011   2.032       .  S
Co67        O547   2.008       .  S
Co68       O1003   1.952       .  S
Co68        O539   2.021       .  S
Co68       O1023   2.077       .  S
Co69        O537   1.928       .  S
Co69         O71   2.022   1_455  S
Co70        O288   2.069       .  S
Co70        O529   2.008       .  S
Co70       O1499   2.062       .  S
O71        Co543   2.039   1_645  S
O71       Co1020   2.025       .  S
O71       Co1498   1.951   1_545  S
C72         C212   1.488       .  S
C73        O1012   1.280       .  A
C73        C1515   1.533       .  S
C74         C192   1.469       .  S
C75         C187   1.475       .  S
O76          C84   1.268       .  A
O76        Co572   2.004   1_545  S
O77          C85   1.292       .  A
O77         Co97   2.056       .  S
O78          C86   1.256       .  A
O78         Co98   1.953       .  S
O79          C87   1.273       .  A
O79         Co99   2.008       .  S
O80          C86   1.268   1_655  A
O80       Co1049   2.033   1_545  S
O81        C1039   1.268       .  A
O81         Co96   2.009       .  S
O82          C85   1.276       .  A
O82        Co575   1.891       .  S
O83          C84   1.259       .  A
O83         Co98   1.970       .  S
C84         C204   1.471       .  S
C85         C196   1.455       .  S
C86         C171   1.482       .  S
C87        O1033   1.284       .  A
C87        C1501   1.532       .  S
O88         C101   1.257       .  A
O88       Co1048   1.962       .  S
O89        C1054   1.256       .  A
O89         Co97   1.952       .  S
O90         C579   1.272   1_545  A
O90         Co98   2.018       .  S
O91         C104   1.291       .  A
O91         Co99   2.092       .  S
O92         C104   1.271       .  A
O92        Co573   1.912       .  S
O93         C103   1.243       .  A
O93         Co96   1.971       .  S
O94         C101   1.273       .  A
O94         Co99   2.047       .  S
O95         C102   1.284   1_445  A
O95         Co98   2.075       .  S
Co96        O552   1.918       .  S
Co96       O1040   2.036       .  S
Co96        O576   1.988       .  S
Co97       O1032   1.966       .  S
Co97        O568   1.918       .  S
Co97       O1052   2.044       .  S
Co98        O100   2.045   1_445  S
Co99        O558   1.911       .  S
Co99       O1528   2.046       .  S
O100       Co572   2.049   1_655  S
O100      Co1049   2.026       .  S
O100      Co1527   2.038       .  S
C101        C200   1.496       .  S
C102       O1041   1.275       .  A
C102       C1486   1.524       .  S
C103        O566   1.252       .  A
C103        C180   1.466       .  S
C104        C176   1.478       .  S
C105        C107   1.533       .  S
C105        C109   1.546       .  S
C105        C108   1.551       .  S
C105        C155   1.503       .  S
C106        C110   1.522       .  S
C106        C112   1.543       .  S
C106        C111   1.536       .  S
C106        C165   1.510       .  S
C107        C115   1.388       .  A
C107        C110   1.382       .  A
C108        C119   1.392       .  A
C108        C111   1.388       .  A
C109        C123   1.387       .  A
C109        C112   1.410       .  A
C110        C113   1.373       .  A
C111        C117   1.375       .  A
C112        C120   1.381       .  A
C113        H126   1.082       .  S
C113        N114   1.356       .  A
N114        C115   1.354       .  A
N114        C191   1.439       .  S
C115        H116   1.084       .  S
C117        H127   1.085       .  S
C117        N118   1.356       .  A
N118        C119   1.364       .  A
N118        C184   1.443       .  S
C119        H125   1.081       .  S
C120        H122   1.082       .  S
C120        N121   1.348       .  A
N121        C123   1.351       .  A
N121        C188   1.433       .  S
C123        H124   1.083       .  S
C128        C130   1.522       .  S
C128        C132   1.543       .  S
C128        C131   1.552       .  S
C128        C162   1.501       .  S
C129        C133   1.530       .  S
C129        C135   1.543       .  S
C129        C134   1.547       .  S
C129        C152   1.514       .  S
C130        C138   1.375       .  A
C130        C133   1.377       .  A
C131        C142   1.394       .  A
C131        C134   1.411       .  A
C132        C146   1.385       .  A
C132        C135   1.388       .  A
C133        C136   1.377       .  A
C134        C140   1.379       .  A
C135        C143   1.382       .  A
C136        H149   1.082       .  S
C136        N137   1.362       .  A
N137        C138   1.351       .  A
N137        C179   1.435       .  S
C138        H139   1.084       .  S
C140        H150   1.082       .  S
C140        N141   1.346       .  A
N141        C142   1.352       .  A
N141        C172   1.432       .  S
C142        H148   1.081       .  S
C143        H145   1.079       .  S
C143        N144   1.361       .  A
N144        C146   1.354       .  A
N144        C175   1.446       .  S
C146        H147   1.085       .  S
C151        C152   1.405       .  A
C151        C156   1.390       .  A
C151        H157   1.082       .  S
C152        C153   1.403       .  A
C153        C154   1.389       .  A
C153        H158   1.077       .  S
C154        C155   1.404       .  A
C154        H159   1.081       .  S
C155        C156   1.404       .  A
C156        H160   1.081       .  S
C161        C162   1.404       .  A
C161        C404   1.382   1_554  A
C161        H167   1.083       .  S
C162        C163   1.401       .  A
C163        C402   1.390   1_554  A
C163        H168   1.076       .  S
C164        C165   1.403       .  A
C164        C401   1.390       .  A
C164        H169   1.083       .  S
C165        C166   1.405       .  A
C166        C399   1.393       .  A
C166        H170   1.078       .  S
C171        C172   1.349       .  D
C171        H173   1.087       .  S
C172        H174   1.089       .  S
C175        C176   1.342       .  D
C175        H177   1.087       .  S
C176        H178   1.085       .  S
C179        C180   1.334       .  D
C179        H181   1.090       .  S
C180        H182   1.090       .  S
C183        C184   1.351       .  D
C183        H185   1.087       .  S
C184        H186   1.089       .  S
C187        C188   1.343       .  D
C187        H189   1.086       .  S
C188        H190   1.087       .  S
C191        C192   1.339       .  D
C191        H193   1.084       .  S
C192        H194   1.086       .  S
C195        C196   1.331       .  D
C195        H197   1.086       .  S
C196        H198   1.087       .  S
C199        C200   1.355       .  D
C199        H201   1.089       .  S
C200        H202   1.086       .  S
C203        C204   1.339       .  D
C203        H205   1.087       .  S
C204        H206   1.088       .  S
C207        C208   1.352       .  D
C207        H209   1.085       .  S
C208        H210   1.084       .  S
C211        N252   1.438       .  S
C211        C212   1.345       .  D
C211        H213   1.088       .  S
C212        H452   1.086       .  S
H214        C450   1.086       .  S
C215        C216   1.345       .  D
C215        H217   1.087       .  S
C216        H218   1.087       .  S
C219        C220   1.389       .  A
C219        C224   1.379       .  A
C219        H225   1.079       .  S
C220        C221   1.410       .  A
C221        C222   1.383       .  A
C221        H226   1.084       .  S
C222        C223   1.395       .  A
C222        H227   1.081       .  S
C223        C224   1.411       .  A
C224        H228   1.083       .  S
C229        C230   1.403       .  A
C229        C234   1.382       .  A
C229        H235   1.082       .  S
C230        C231   1.403       .  A
C231        C232   1.387       .  A
C231        H236   1.080       .  S
C232        C233   1.403       .  A
C232        H237   1.083       .  S
C233        C234   1.398       .  A
C234        H238   1.078       .  S
C239        C241   1.539       .  S
C239        C243   1.527       .  S
C239        C242   1.533       .  S
C239        C461   1.509       .  S
C240        C244   1.558       .  S
C240        C246   1.555       .  S
C240        C245   1.562       .  S
C240        C471   1.509       .  S
C241        C249   1.379       .  A
C242        C253   1.377       .  A
C243        C257   1.373       .  A
C244        C247   1.392       .  A
C245        C251   1.401       .  A
C246        C254   1.400       .  A
C247        H260   1.083       .  S
N248        C249   1.344       .  A
N248        C446   1.426       .  S
C249        H250   1.085       .  S
C251        H261   1.081       .  S
C251        N252   1.362       .  A
C253        H259   1.080       .  S
C254        H256   1.082       .  S
N255        C257   1.360       .  A
N255        C454   1.429       .  S
C257        H258   1.081       .  S
C262        C264   1.526       .  S
C262        C266   1.536       .  S
C262        C265   1.537       .  S
C262        C468   1.510       .  S
C263        C267   1.549       .  S
C263        C269   1.539       .  S
C263        C268   1.555       .  S
C263        C458   1.505       .  S
C264        C272   1.369       .  A
C264        C267   1.386       .  A
C265        C276   1.375       .  A
C265        C268   1.390       .  A
C266        C280   1.376       .  A
C266        C269   1.387       .  A
C267        C270   1.393       .  A
C268        C274   1.390       .  A
C269        C277   1.386       .  A
C270        H283   1.081       .  S
C270        N271   1.365       .  A
N271        C272   1.348       .  A
N271        C433   1.438       .  S
C272        H273   1.085       .  S
C274        H284   1.082       .  S
C274        N275   1.360       .  A
N275        C276   1.361       .  A
N275        C437   1.451       .  S
C276        H282   1.081       .  S
C277        H279   1.082       .  S
C277        N278   1.358       .  A
N278        C280   1.358       .  A
N278        C441   1.442       .  S
C280        H281   1.082       .  S
O285        C293   1.276       .  A
O285       Co781   1.885   1_545  S
O286        C294   1.264       .  A
O286       Co306   1.972       .  S
O287        C295   1.243       .  A
O287       Co307   1.959       .  S
O288        C296   1.283       .  A
O289        C295   1.268       .  A
O289      Co1258   2.012   1_455  S
O290       C1248   1.270       .  A
O291        C294   1.265       .  A
O291       Co784   1.997   1_545  S
O292        C293   1.294       .  A
O292       Co307   2.065       .  S
C293        C453   1.456       .  S
C294        C445   1.469       .  S
C295        C421   1.474       .  S
C296       O1242   1.266       .  A
C296       C1768   1.503       .  S
O297        C310   1.270       .  A
O297      Co1257   1.907       .  S
O298       C1263   1.286       .  A
O298       Co306   2.081       .  S
O299        C312   1.267       .  A
O299       Co783   2.007       .  S
O300        C313   1.269       .  A
O300       Co308   2.027       .  S
O301        C313   1.255       .  A
O301       Co782   1.973       .  S
O302        C312   1.262       .  A
O302       Co305   1.997       .  S
O303        C310   1.288       .  A
O303       Co308   2.079       .  S
O304        C311   1.261   1_465  A
O304       Co307   1.948   1_565  S
Co305       O761   2.010       .  S
Co305      O1249   1.893   1_556  S
Co305       O785   1.954       .  S
Co306      O1241   2.004       .  S
Co306       O777   2.015       .  S
Co306      O1261   2.072       .  S
Co307       O775   1.928       .  S
Co307       O309   2.059   1_445  S
Co308       O767   1.978       .  S
Co308      O1737   2.045       .  S
O309       Co781   1.991   1_655  S
O309      Co1258   2.086   1_565  S
O309      Co1736   2.060       .  S
C310        C450   1.467       .  S
C311       O1250   1.287       .  A
C311       C1753   1.498       .  S
C312        C430   1.477       .  S
C313        C425   1.487       .  S
O314        C322   1.273       .  A
O314       Co810   2.041   1_545  S
O315        C323   1.250       .  A
O315       Co335   1.983       .  S
O316        C324   1.267       .  A
O316       Co336   1.976       .  S
O317        C325   1.264       .  A
O317       Co337   1.981       .  S
O318        C324   1.255       .  A
O318      Co1287   1.968   1_455  S
O319       C1277   1.282       .  A
O319       Co334   2.078       .  S
O320        C323   1.247       .  A
O320       Co813   1.982   1_545  S
O321        C322   1.257       .  A
O321       Co336   1.966       .  S
C322        C442   1.478       .  S
C323        C434   1.481       .  S
C324        C409   1.457       .  S
C325       O1271   1.281       .  A
C325       C1739   1.500       .  S
O326        C339   1.252       .  A
O326      Co1286   1.956       .  S
O327       C1292   1.274       .  A
O327       Co335   2.020       .  S
O328        C817   1.266   1_545  A
O328       Co336   2.020       .  S
O329        C342   1.289       .  A
O329       Co337   2.086       .  S
O330        C342   1.269       .  A
O330       Co811   1.899       .  S
O331        C341   1.255       .  A
O331       Co334   1.953       .  S
O332        C339   1.269       .  A
O332       Co337   2.042       .  S
O333        C340   1.275       .  A
O333       Co336   2.063       .  S
Co334       O790   2.030       .  S
Co334      O1278   1.963   1_455  S
Co334       O814   2.049       .  S
Co335      O1270   1.996       .  S
Co335       O806   1.924       .  S
Co335      O1290   1.988       .  S
Co336       O338   2.126   1_455  S
Co337       O796   1.887       .  S
Co337      O1766   2.010       .  S
O338       Co810   1.969   1_645  S
O338      Co1765   2.194   1_545  S
O338      Co1287   2.023       .  S
C339        C438   1.476       .  S
C340       O1279   1.258   1_445  A
C340       C1724   1.499   1_455  S
C341        O804   1.264       .  A
C341        C418   1.464       .  S
C342        C414   1.467       .  S
C343        C345   1.549       .  S
C343        C347   1.560       .  S
C343        C346   1.557       .  S
C343        C393   1.514       .  S
C344        C348   1.507       .  S
C344        C350   1.537       .  S
C344        C349   1.523       .  S
C344        C403   1.503       .  S
C345        C353   1.392       .  A
C345        C348   1.376       .  A
C346        C357   1.395       .  A
C346        C349   1.390       .  A
C347        C361   1.399       .  A
C347        C350   1.406       .  A
C348        C351   1.366       .  A
C349        C355   1.363       .  A
C350        C358   1.376       .  A
C351        H364   1.085       .  S
C351        N352   1.353       .  A
N352        C353   1.364       .  A
N352        C429   1.440       .  S
C353        H354   1.081       .  S
C355        H365   1.080       .  S
C355        N356   1.344       .  A
N356        C357   1.366       .  A
N356        C422   1.432       .  S
C357        H363   1.083       .  S
C358        H360   1.082       .  S
C358        N359   1.346       .  A
N359        C361   1.365       .  A
N359        C426   1.447       .  S
C361        H362   1.081       .  S
C366        C368   1.529       .  S
C366        C370   1.542       .  S
C366        C369   1.542       .  S
C366        C400   1.517       .  S
C367        C371   1.524       .  S
C367        C373   1.540       .  S
C367        C372   1.535       .  S
C367        C390   1.530       .  S
C368        C376   1.379       .  A
C368        C371   1.395       .  A
C369        C380   1.389       .  A
C369        C372   1.409       .  A
C370        C384   1.379       .  A
C370        C373   1.397       .  A
C371        C374   1.370       .  A
C372        C378   1.373       .  A
C373        C381   1.377       .  A
C374        H387   1.085       .  S
C374        N375   1.350       .  A
N375        C376   1.354       .  A
N375        C417   1.427       .  S
C376        H377   1.081       .  S
C378        H388   1.082       .  S
C378        N379   1.336       .  A
N379        C380   1.344       .  A
N379        C410   1.415       .  S
C380        H386   1.082       .  S
C381        H383   1.082       .  S
C381        N382   1.359       .  A
N382        C384   1.351       .  A
N382        C413   1.437       .  S
C384        H385   1.081       .  S
C389        C390   1.406       .  A
C389        C394   1.403       .  A
C389        H395   1.080       .  S
C390        C391   1.410       .  A
C391        C392   1.386       .  A
C391        H396   1.079       .  S
C392        C393   1.400       .  A
C392        H397   1.083       .  S
C393        C394   1.408       .  A
C394        H398   1.079       .  S
C399        C400   1.403       .  A
C399        H405   1.084       .  S
C400        C401   1.406       .  A
C401        H406   1.078       .  S
C402        C403   1.406       .  A
C402        H407   1.082       .  S
C403        C404   1.398       .  A
C404        H408   1.082       .  S
C409        C410   1.331       .  D
C409        H411   1.088       .  S
C410        H412   1.088       .  S
C413        C414   1.336       .  D
C413        H415   1.084       .  S
C414        H416   1.084       .  S
C417        C418   1.341       .  D
C417        H419   1.088       .  S
C418        H420   1.085       .  S
C421        C422   1.330       .  D
C421        H423   1.085       .  S
C422        H424   1.087       .  S
C425        C426   1.341       .  D
C425        H427   1.084       .  S
C426        H428   1.087       .  S
C429        C430   1.349       .  D
C429        H431   1.084       .  S
C430        H432   1.086       .  S
C433        C434   1.340       .  D
C433        H435   1.087       .  S
C434        H436   1.086       .  S
C437        C438   1.345       .  D
C437        H439   1.086       .  S
C438        H440   1.083       .  S
C441        C442   1.341       .  D
C441        H443   1.085       .  S
C442        H444   1.087       .  S
C445        C446   1.337       .  D
C445        H447   1.087   1_556  S
C446        H448   1.088       .  S
C449        C450   1.334       .  D
C449        H451   1.087   1_556  S
C453        C454   1.329       .  D
C453        H455   1.089       .  S
C454        H456   1.090   1_556  S
C457        C458   1.406       .  A
C457        C462   1.389       .  A
C457        H463   1.079       .  S
C458        C459   1.403       .  A
C459        C460   1.390       .  A
C459        H464   1.081       .  S
C460        C461   1.405       .  A
C460        H465   1.081       .  S
C461        C462   1.401       .  A
C462        H466   1.083       .  S
C467        C468   1.405       .  A
C467        C472   1.389       .  A
C467        H473   1.081       .  S
C468        C469   1.407       .  A
C469        C470   1.390       .  A
C469        H474   1.077       .  S
C470        C471   1.401       .  A
C470        H475   1.083       .  S
C471        C472   1.402       .  A
C472        H476   1.074       .  S
C477        C479   1.527       .  S
C477        C481   1.534       .  S
C477        C480   1.534       .  S
C477        C699   1.510       .  S
C478        C482   1.550       .  S
C478        C484   1.550       .  S
C478        C483   1.547       .  S
C478        C709   1.507       .  S
C479        C487   1.370       .  A
C479        C720   1.389       .  A
C480        C491   1.375       .  A
C480        C721   1.395       .  A
C481        C495   1.374       .  A
C481        C722   1.390       .  A
C482        C717   1.385   1_554  A
C482        C485   1.391       .  A
C483        C718   1.388   1_554  A
C483        C489   1.382       .  A
C484        C719   1.389   1_554  A
C484        C492   1.395       .  A
C485        H498   1.083       .  S
C485        N724   1.366   1_554  A
N486        C723   1.359       .  A
N486        C487   1.352       .  A
N486        C684   1.433       .  S
C487        H488   1.083       .  S
C489        H499   1.082       .  S
C489        N490   1.355       .  A
N490        C729   1.355   1_554  A
N490        C925   1.430       .  S
C491        H497   1.075       .  S
C491        N728   1.352       .  A
C492        H494   1.081       .  S
C492        N731   1.358   1_554  A
N493        C730   1.358       .  A
N493        C495   1.349       .  A
N493        C692   1.435       .  S
C495        H496   1.082       .  S
C500        C502   1.517       .  S
C500        C504   1.548       .  S
C500        C503   1.535       .  S
C500        C706   1.506       .  S
C501        C505   1.539       .  S
C501        C507   1.533       .  S
C501        C506   1.555       .  S
C501        C696   1.500       .  S
C502        C510   1.370       .  A
C502        C505   1.373       .  A
C503        C514   1.368       .  A
C503        C506   1.403       .  A
C504        C518   1.386       .  A
C504        C507   1.393       .  A
C505        C508   1.389       .  A
C506        C512   1.402       .  A
C507        C515   1.373       .  A
C508        H521   1.082       .  S
C508        N509   1.358       .  A
N509        C510   1.358       .  A
N509        C671   1.443       .  S
C510        H511   1.083       .  S
C512        H522   1.081       .  S
C512        N513   1.363       .  A
N513        C514   1.346       .  A
N513        C675   1.440       .  S
C514        H520   1.082       .  S
C515        H517   1.080       .  S
C515        N516   1.349       .  A
N516        C518   1.362       .  A
N516        C679   1.434       .  S
C518        H519   1.081       .  S
O523        C531   1.266       .  A
O524        C532   1.262       .  A
O524       Co544   1.970       .  S
O525        C533   1.269       .  A
O525       Co545   2.031       .  S
O526        C534   1.287   1_565  A
O526       Co784   2.087   1_554  S
O527        C533   1.256       .  A
O527      Co1496   1.967       .  S
O528       C1486   1.275   1_445  A
O528       Co781   1.999   1_544  S
O529        C532   1.267       .  A
O530        C531   1.299       .  A
O530       Co545   2.113       .  S
C531        C691   1.469       .  S
C532        C683   1.476       .  S
C533        C659   1.471       .  S
C534       O1480   1.252       .  A
C534       C1054   1.492       .  S
O535        C548   1.297       .  A
O535      Co1495   1.993       .  S
O536       C1501   1.287       .  A
O536       Co544   2.089       .  S
O537        C550   1.276   1_545  A
O538        C551   1.273       .  A
O538       Co546   1.997       .  S
O539        C551   1.273   1_545  A
O540        C550   1.300       .  A
O540       Co543   2.088       .  S
O541        C548   1.286       .  A
O541       Co546   1.943       .  S
O542        C549   1.277       .  A
O542       Co545   2.009       .  S
Co543       O766   2.007   1_565  S
Co543      O1487   2.113   1_455  S
Co544      O1479   1.963       .  S
Co544      O1499   2.044       .  S
Co545       O547   2.023       .  S
Co546       O764   2.062   1_565  S
Co546      O1023   2.112   1_565  S
O547      Co1496   2.042       .  S
O547      Co1022   2.041   1_455  S
C548        C688   1.459       .  S
C549       O1488   1.284       .  A
C549       C1039   1.523       .  S
C550        C668   1.496       .  S
C551        C663   1.504       .  S
O552        C560   1.278       .  A
O553        C561   1.292       .  A
O553       Co573   2.087       .  S
O554        C562   1.269       .  A
O554       Co574   1.899       .  S
O555        C563   1.273       .  A
O555       Co575   1.999       .  S
O556        C562   1.296       .  A
O556      Co1525   2.080   1_455  S
O557       C1515   1.287   1_565  A
O557       Co572   2.088   1_655  S
O558        C561   1.274       .  A
O559        C560   1.290       .  A
O559       Co574   2.043       .  S
C560        C680   1.472       .  S
C561        C672   1.471       .  S
C562        C647   1.474       .  S
C563       O1509   1.287       .  A
C563       C1025   1.524       .  S
O564        C577   1.256       .  A
O564      Co1524   1.954       .  S
O565       C1530   1.279       .  A
O565       Co573   2.008       .  S
O566       Co574   1.996       .  S
O567        C580   1.271       .  A
O567       Co575   2.057   1_565  S
O568        C580   1.235   1_545  A
O569        C579   1.264       .  A
O569       Co572   1.968       .  S
O570        C577   1.269       .  A
O570       Co575   2.036   1_565  S
O571        C578   1.257       .  A
O571       Co574   1.997       .  S
Co572      O1516   1.958   1_455  S
Co573      O1508   2.021       .  S
Co573      O1528   2.028       .  S
Co574       O576   2.061       .  S
Co575      O1052   2.020       .  S
O576      Co1525   2.150   1_455  S
O576      Co1051   2.079   1_455  S
C577        C676   1.486       .  S
C578       O1517   1.267   1_455  A
C578       C1010   1.512       .  S
C579        C656   1.479       .  S
C580        C652   1.469       .  S
C581        C583   1.541       .  S
C581        C585   1.551       .  S
C581        C584   1.546       .  S
C581        C631   1.498       .  S
C582        C586   1.533       .  S
C582        C588   1.555       .  S
C582        C587   1.541       .  S
C582        C641   1.507       .  S
C583        C591   1.392       .  A
C583        C586   1.372       .  A
C584        C595   1.390       .  A
C584        C587   1.397       .  A
C585        C599   1.392       .  A
C585        C588   1.393       .  A
C586        C589   1.385       .  A
C587        C593   1.383       .  A
C588        C596   1.388       .  A
C589        H602   1.084       .  S
C589        N590   1.360       .  A
N590        C591   1.364       .  A
N590        C667   1.454       .  S
C591        H592   1.080       .  S
C593        H603   1.081       .  S
C593        N594   1.355       .  A
N594        C595   1.354       .  A
N594        C660   1.447       .  S
C595        H601   1.081       .  S
C596        H598   1.083       .  S
C596        N597   1.366       .  A
N597        C599   1.363       .  A
N597        C664   1.452       .  S
C599        H600   1.081       .  S
C604        C606   1.533       .  S
C604        C608   1.554       .  S
C604        C607   1.550       .  S
C604        C638   1.507       .  S
C605        C609   1.527       .  S
C605        C611   1.534       .  S
C605        C610   1.534       .  S
C605        C628   1.506       .  S
C606        C614   1.385       .  A
C606        C609   1.382       .  A
C607        C618   1.386       .  A
C607        C610   1.387       .  A
C608        C622   1.394       .  A
C608        C611   1.404       .  A
C609        C612   1.373       .  A
C610        C616   1.378       .  A
C611        C619   1.374       .  A
C612        H625   1.083       .  S
C612        N613   1.355       .  A
N613        C614   1.361       .  A
N613        C655   1.437       .  S
C614        H615   1.082       .  S
C616        H626   1.082       .  S
C616        N617   1.356       .  A
N617        C618   1.360       .  A
N617        C648   1.440       .  S
C618        H624   1.082       .  S
C619        H621   1.077       .  S
C619        N620   1.348       .  A
N620        C622   1.352       .  A
N620        C651   1.439       .  S
C622        H623   1.083       .  S
C627        C628   1.406       .  A
C627        C632   1.390       .  A
C627        H633   1.077       .  S
C628        C629   1.400       .  A
C629        C630   1.384       .  A
C629        H634   1.082       .  S
C630        C631   1.406       .  A
C630        H635   1.080       .  S
C631        C632   1.401       .  A
C632        H636   1.082       .  S
C637        C638   1.401       .  A
C637        C880   1.385   1_554  A
C637        H643   1.080       .  S
C638        C639   1.404       .  A
C639        C878   1.393   1_554  A
C639        H644   1.083       .  S
C640        C877   1.390       .  A
C640        C641   1.410       .  A
C640        H645   1.078       .  S
C641        C642   1.399       .  A
C642        C875   1.389       .  A
C642        H646   1.084       .  S
C647        C648   1.346       .  D
C647        H649   1.085       .  S
C648        H650   1.087       .  S
C651        C652   1.351       .  D
C651        H653   1.088       .  S
C652        H654   1.084       .  S
C655        C656   1.346       .  D
C655        H657   1.086       .  S
C656        H658   1.084       .  S
C659        C660   1.347       .  D
C659        H661   1.084       .  S
C660        H662   1.086       .  S
C663        C664   1.364       .  D
C663        H665   1.087       .  S
C664        H666   1.088       .  S
C667        C668   1.354       .  D
C667        H669   1.086       .  S
C668        H670   1.086       .  S
C671        C672   1.341       .  D
C671        H673   1.084       .  S
C672        H674   1.085       .  S
C675        C676   1.349       .  D
C675        H677   1.090       .  S
C676        H678   1.086       .  S
C679        C680   1.336       .  D
C679        H681   1.086       .  S
C680        H682   1.086       .  S
C683        C684   1.342       .  D
C683        H685   1.085       .  S
C684        H686   1.086       .  S
C687        N728   1.422       .  S
C687        C688   1.332       .  D
C687        H689   1.086       .  S
C688        H928   1.086       .  S
H690        C926   1.085       .  S
C691        C692   1.342       .  D
C691        H693   1.086       .  S
C692        H694   1.087       .  S
C695        C696   1.401       .  A
C695        C700   1.397       .  A
C695        H701   1.080       .  S
C696        C697   1.403       .  A
C697        C698   1.376       .  A
C697        H702   1.083       .  S
C698        C699   1.401       .  A
C698        H703   1.085       .  S
C699        C700   1.407       .  A
C700        H704   1.069       .  S
C705        C706   1.408       .  A
C705        C710   1.385       .  A
C705        H711   1.083       .  S
C706        C707   1.401       .  A
C707        C708   1.394       .  A
C707        H712   1.078       .  S
C708        C709   1.406       .  A
C708        H713   1.077       .  S
C709        C710   1.399       .  A
C710        H714   1.083       .  S
C715        C717   1.527       .  S
C715        C719   1.526       .  S
C715        C718   1.527       .  S
C715        C937   1.500       .  S
C716        C720   1.534       .  S
C716        C722   1.546       .  S
C716        C721   1.542       .  S
C716        C947   1.506       .  S
C717        C725   1.370       .  A
C718        C729   1.368       .  A
C719        C733   1.374       .  A
C720        C723   1.384       .  A
C721        C727   1.380       .  A
C722        C730   1.386       .  A
C723        H736   1.082       .  S
N724        C725   1.358       .  A
N724        C922   1.451       .  S
C725        H726   1.078       .  S
C727        H737   1.081       .  S
C727        N728   1.347       .  A
C729        H735   1.082       .  S
C730        H732   1.079       .  S
N731        C733   1.349       .  A
N731        C930   1.437       .  S
C733        H734   1.083       .  S
C738        C740   1.528       .  S
C738        C742   1.540       .  S
C738        C741   1.537       .  S
C738        C944   1.505       .  S
C739        C743   1.539       .  S
C739        C745   1.539       .  S
C739        C744   1.540       .  S
C739        C934   1.497       .  S
C740        C748   1.369       .  A
C740        C743   1.389       .  A
C741        C752   1.376       .  A
C741        C744   1.383       .  A
C742        C756   1.380       .  A
C742        C745   1.392       .  A
C743        C746   1.388       .  A
C744        C750   1.383       .  A
C745        C753   1.382       .  A
C746        H759   1.081       .  S
C746        N747   1.356       .  A
N747        C748   1.346       .  A
N747        C909   1.428       .  S
C748        H749   1.083       .  S
C750        H760   1.082       .  S
C750        N751   1.356       .  A
N751        C752   1.360       .  A
N751        C913   1.441       .  S
C752        H758   1.081       .  S
C753        H755   1.081       .  S
C753        N754   1.356       .  A
N754        C756   1.358       .  A
N754        C917   1.437       .  S
C756        H757   1.080       .  S
O761        C769   1.264       .  A
O762        C770   1.281       .  A
O762       Co782   2.027       .  S
O763        C771   1.259       .  A
O763       Co783   1.948       .  S
O764        C772   1.250       .  A
O765        C771   1.279       .  A
O765      Co1734   2.032   1_455  S
O766       C1724   1.253   1_455  A
O767        C770   1.272       .  A
O768        C769   1.259       .  A
O768       Co783   1.975       .  S
C769        C929   1.482       .  S
C770        C921   1.477       .  S
C771        C897   1.466       .  S
C772       O1718   1.241       .  A
C772       C1292   1.516       .  S
O773        C786   1.251       .  A
O773      Co1733   1.962   1_565  S
O774       C1739   1.261       .  A
O774       Co782   1.982       .  S
O775        C788   1.233   1_545  A
O776        C789   1.267       .  A
O776       Co784   1.987       .  S
O777        C789   1.270   1_545  A
O778        C788   1.265       .  A
O778       Co781   2.044       .  S
O779        C786   1.262       .  A
O779       Co784   1.991       .  S
O780        C787   1.268       .  A
O780       Co783   2.051       .  S
Co781      O1725   2.016   1_455  S
Co782      O1717   2.034       .  S
Co782      O1737   2.040       .  S
Co783       O785   2.106       .  S
Co784      O1261   2.091   1_565  S
O785      Co1734   1.975   1_455  S
O785      Co1260   2.263   1_455  S
C786        C926   1.444       .  S
C787       O1726   1.269   1_455  A
C787       C1277   1.524       .  S
C788        C906   1.463       .  S
C789        C901   1.492       .  S
O790        C798   1.275       .  A
O791        C799   1.299       .  A
O791       Co811   2.101       .  S
O792        C800   1.254       .  A
O792       Co812   1.966       .  S
O793        C801   1.257   1_565  A
O793       Co813   2.035       .  S
O794        C800   1.265       .  A
O794      Co1763   2.035   1_455  S
O795       C1753   1.257   1_455  A
O795       Co810   2.001   1_545  S
O796        C799   1.267       .  A
O797        C798   1.261       .  A
O797       Co812   1.964       .  S
C798        C918   1.477       .  S
C799        C910   1.470       .  S
C800        C885   1.495       .  S
C801       O1747   1.252       .  A
C801       C1263   1.499       .  S
O802        C815   1.272       .  A
O802      Co1762   1.917       .  S
O803       C1768   1.272       .  A
O803       Co811   1.988       .  S
O804       Co812   2.010       .  S
O805        C818   1.290       .  A
O805       Co813   2.045       .  S
O806        C818   1.278   1_545  A
O807        C817   1.257       .  A
O807       Co810   1.984       .  S
O808        C815   1.292       .  A
O808       Co813   2.063       .  S
O809        C816   1.286       .  A
O809       Co812   2.075       .  S
Co810      O1754   1.898   1_455  S
Co811      O1746   2.031       .  S
Co811      O1766   2.018       .  S
Co812       O814   2.065       .  S
Co813      O1290   2.251   1_565  S
O814      Co1763   2.021   1_455  S
O814      Co1289   2.036   1_455  S
C815        C914   1.470       .  S
C816       O1755   1.274   1_455  A
C816       C1248   1.524       .  S
C817        C894   1.483       .  S
C818        C890   1.473       .  S
C819        C821   1.524       .  S
C819        C823   1.555       .  S
C819        C822   1.547       .  S
C819        C869   1.498       .  S
C820        C824   1.524       .  S
C820        C826   1.538       .  S
C820        C825   1.539       .  S
C820        C879   1.507       .  S
C821        C829   1.382       .  A
C821        C824   1.375       .  A
C822        C833   1.385       .  A
C822        C825   1.397       .  A
C823        C837   1.394       .  A
C823        C826   1.395       .  A
C824        C827   1.368       .  A
C825        C831   1.380       .  A
C826        C834   1.373       .  A
C827        H840   1.084       .  S
C827        N828   1.356       .  A
N828        C829   1.355       .  A
N828        C905   1.434       .  S
C829        H830   1.083       .  S
C831        H841   1.081       .  S
C831        N832   1.357       .  A
N832        C833   1.351       .  A
N832        C898   1.441       .  S
C833        H839   1.082       .  S
C834        H836   1.082       .  S
C834        N835   1.354       .  A
N835        C837   1.366       .  A
N835        C902   1.445       .  S
C837        H838   1.082       .  S
C842        C844   1.538       .  S
C842        C846   1.544       .  S
C842        C845   1.567       .  S
C842        C876   1.510       .  S
C843        C847   1.532       .  S
C843        C849   1.542       .  S
C843        C848   1.539       .  S
C843        C866   1.508       .  S
C844        C852   1.385       .  A
C844        C847   1.386       .  A
C845        C856   1.404       .  A
C845        C848   1.394       .  A
C846        C860   1.386       .  A
C846        C849   1.386       .  A
C847        C850   1.379       .  A
C848        C854   1.376       .  A
C849        C857   1.385       .  A
C850        H863   1.083       .  S
C850        N851   1.359       .  A
N851        C852   1.360       .  A
N851        C893   1.440       .  S
C852        H853   1.082       .  S
C854        H864   1.083       .  S
C854        N855   1.349       .  A
N855        C856   1.365       .  A
N855        C886   1.444       .  S
C856        H862   1.081       .  S
C857        H859   1.081       .  S
C857        N858   1.355       .  A
N858        C860   1.351       .  A
N858        C889   1.440       .  S
C860        H861   1.083       .  S
C865        C866   1.405       .  A
C865        C870   1.393       .  A
C865        H871   1.077       .  S
C866        C867   1.398       .  A
C867        C868   1.382       .  A
C867        H872   1.083       .  S
C868        C869   1.409       .  A
C868        H873   1.080       .  S
C869        C870   1.400       .  A
C870        H874   1.081       .  S
C875        C876   1.409       .  A
C875        H881   1.083       .  S
C876        C877   1.397       .  A
C877        H882   1.078       .  S
C878        C879   1.405       .  A
C878        H883   1.078       .  S
C879        C880   1.403       .  A
C880        H884   1.084       .  S
C885        C886   1.353       .  D
C885        H887   1.085       .  S
C886        H888   1.085       .  S
C889        C890   1.340       .  D
C889        H891   1.086       .  S
C890        H892   1.086       .  S
C893        C894   1.345       .  D
C893        H895   1.086       .  S
C894        H896   1.087       .  S
C897        C898   1.336       .  D
C897        H899   1.088       .  S
C898        H900   1.088       .  S
C901        C902   1.346       .  D
C901        H903   1.086       .  S
C902        H904   1.086       .  S
C905        C906   1.345       .  D
C905        H907   1.085       .  S
C906        H908   1.084       .  S
C909        C910   1.338       .  D
C909        H911   1.086       .  S
C910        H912   1.085       .  S
C913        C914   1.341       .  D
C913        H915   1.088       .  S
C914        H916   1.087       .  S
C917        C918   1.340       .  D
C917        H919   1.087       .  S
C918        H920   1.088       .  S
C921        C922   1.353       .  D
C921        H923   1.082       .  S
C922        H924   1.086   1_556  S
C925        C926   1.335   1_554  D
C925        H927   1.087       .  S
C929        C930   1.346       .  D
C929        H931   1.086   1_556  S
C930        H932   1.087       .  S
C933        C934   1.402       .  A
C933        C938   1.385       .  A
C933        H939   1.082       .  S
C934        C935   1.399       .  A
C935        C936   1.384       .  A
C935        H940   1.079       .  S
C936        C937   1.405       .  A
C936        H941   1.081       .  S
C937        C938   1.404       .  A
C938        H942   1.080       .  S
C943        C944   1.407       .  A
C943        C948   1.380       .  A
C943        H949   1.083       .  S
C944        C945   1.403       .  A
C945        C946   1.393       .  A
C945        H950   1.078       .  S
C946        C947   1.402       .  A
C946        H951   1.076       .  S
C947        C948   1.399       .  A
C948        H952   1.084       .  S
C953        C955   1.530       .  S
C953        C957   1.520       .  S
C953        C956   1.532       .  S
C953       C1175   1.489       .  S
C954        C958   1.541       .  S
C954        C960   1.539       .  S
C954        C959   1.555       .  S
C954       C1185   1.500       .  S
C955        C963   1.375       .  A
C955       C1196   1.387       .  A
C956        C967   1.376       .  A
C956       C1197   1.383       .  A
C957        C971   1.371       .  A
C957       C1198   1.381       .  A
C958       C1193   1.404   1_554  A
C958        C961   1.387       .  A
C959       C1194   1.398   1_554  A
C959        C965   1.391       .  A
C960       C1195   1.376   1_554  A
C960        C968   1.392       .  A
C961        H974   1.083       .  S
C961       N1200   1.351   1_554  A
N962       C1199   1.365       .  A
N962        C963   1.353       .  A
N962       C1160   1.441       .  S
C963        H964   1.082       .  S
C965        H975   1.081       .  S
C965        N966   1.357   1_554  A
N966       C1205   1.346       .  A
N966       C1401   1.434       .  S
C967        H973   1.078       .  S
C967       N1204   1.358       .  A
C968        H970   1.080       .  S
C968       N1207   1.361       .  A
N969       C1206   1.364       .  A
N969        C971   1.350       .  A
N969       C1168   1.440       .  S
C971        H972   1.082       .  S
C976        C978   1.522       .  S
C976        C980   1.538       .  S
C976        C979   1.536       .  S
C976       C1182   1.503       .  S
C977        C981   1.536       .  S
C977        C983   1.535       .  S
C977        C982   1.552       .  S
C977       C1172   1.490       .  S
C978        C986   1.365       .  A
C978        C981   1.381       .  A
C979        C990   1.369       .  A
C979        C982   1.392       .  A
C980        C994   1.379       .  A
C980        C983   1.386       .  A
C981        C984   1.383       .  A
C982        C988   1.393       .  A
C983        C991   1.382       .  A
C984        H997   1.080       .  S
C984        N985   1.351       .  A
N985        C986   1.358       .  A
N985       C1147   1.433       .  S
C986        H987   1.083       .  S
C988        H998   1.080       .  S
C988        N989   1.358       .  A
N989        C990   1.350       .  A
N989       C1151   1.430       .  S
C990        H996   1.082       .  S
C991        H993   1.084       .  S
C991        N992   1.356       .  A
N992        C994   1.358       .  A
N992       C1155   1.438       .  S
C994        H995   1.081       .  S
O999       C1007   1.277       .  A
O999      Co1495   2.025   1_545  S
O1000      C1008   1.275       .  A
O1000     Co1020   2.002       .  S
O1001      C1009   1.270       .  A
O1001     Co1021   2.025       .  S
O1002      C1010   1.258   1_655  A
O1002     Co1260   2.024   1_554  S
O1003      C1009   1.256       .  A
O1004     Co1257   2.141   1_554  S
O1005      C1008   1.279   1_565  A
O1005     Co1498   2.022       .  S
O1006      C1007   1.271       .  A
O1006     Co1021   1.988       .  S
C1007      C1167   1.492       .  S
C1008      C1159   1.490       .  S
C1009      C1135   1.473       .  S
O1011      C1024   1.265   1_455  A
O1012     Co1020   2.066       .  S
O1013      C1026   1.272       .  A
O1013     Co1497   1.894       .  S
O1014      C1027   1.266       .  A
O1014     Co1022   1.974       .  S
O1015      C1027   1.269       .  A
O1015     Co1496   1.999   1_655  S
O1016      C1026   1.292       .  A
O1016     Co1019   2.081       .  S
O1017      C1024   1.253       .  A
O1017     Co1022   1.968       .  S
O1018      C1025   1.260       .  A
O1018     Co1021   1.985       .  S
Co1019     O1475   1.881       .  S
Co1019     O1242   1.980       .  S
Co1019     O1499   2.010       .  S
Co1020     O1491   2.028   1_545  S
Co1021     O1489   2.000   1_545  S
Co1021     O1023   2.098       .  S
Co1022     O1240   2.092       .  S
Co1022     O1481   1.994       .  S
O1023     Co1495   2.051   1_545  S
C1024      C1164   1.473       .  S
C1026      C1144   1.459       .  S
C1027      C1139   1.469       .  S
O1028      C1036   1.272       .  A
O1028     Co1524   2.032   1_545  S
O1029      C1037   1.286       .  A
O1029     Co1049   2.068   1_545  S
O1030      C1038   1.261       .  A
O1030     Co1050   1.986       .  S
O1031      C1039   1.273   1_655  A
O1031     Co1051   2.062       .  S
O1032      C1038   1.246       .  A
O1033     Co1048   2.077       .  S
O1034      C1037   1.273   1_565  A
O1034     Co1527   1.903       .  S
O1035      C1036   1.258       .  A
O1035     Co1050   1.964       .  S
C1036      C1156   1.480       .  S
C1037      C1148   1.454       .  S
C1038      C1123   1.463       .  S
O1040      C1053   1.275   1_455  A
O1041     Co1049   1.998       .  S
O1042      C1531   1.268   1_545  A
O1042     Co1050   2.016       .  S
O1043      C1056   1.252       .  A
O1043     Co1051   1.954       .  S
O1044      C1056   1.272       .  A
O1044     Co1525   2.040       .  S
O1045      C1055   1.258       .  A
O1045     Co1048   1.965       .  S
O1046      C1053   1.262       .  A
O1046     Co1051   1.949       .  S
O1047      C1054   1.287       .  A
O1047     Co1050   2.078       .  S
Co1048     O1504   2.025       .  S
Co1048     O1528   2.049       .  S
Co1049     O1520   1.905       .  S
Co1050     O1052   2.086       .  S
Co1051     O1510   2.023       .  S
O1052     Co1524   2.036   1_545  S
C1053      C1152   1.485       .  S
C1055      O1518   1.269       .  A
C1055      C1132   1.471       .  S
C1056      C1128   1.476       .  S
C1057      C1059   1.525       .  S
C1057      C1061   1.543       .  S
C1057      C1060   1.545       .  S
C1057      C1107   1.491       .  S
C1058      C1062   1.516       .  S
C1058      C1064   1.538       .  S
C1058      C1063   1.534       .  S
C1058      C1117   1.500       .  S
C1059      C1067   1.381       .  A
C1059      C1062   1.372       .  A
C1060      C1071   1.384       .  A
C1060      C1063   1.386       .  A
C1061      C1075   1.386       .  A
C1061      C1064   1.412       .  A
C1062      C1065   1.367       .  A
C1063      C1069   1.374       .  A
C1064      C1072   1.377       .  A
C1065      H1078   1.083       .  S
C1065      N1066   1.357       .  A
N1066      C1067   1.354       .  A
N1066      C1143   1.431       .  S
C1067      H1068   1.083       .  S
C1069      H1079   1.081       .  S
C1069      N1070   1.360       .  A
N1070      C1071   1.361       .  A
N1070      C1136   1.444       .  S
C1071      H1077   1.081       .  S
C1072      H1074   1.084       .  S
C1072      N1073   1.344       .  A
N1073      C1075   1.349       .  A
N1073      C1140   1.426       .  S
C1075      H1076   1.081       .  S
C1080      C1082   1.526       .  S
C1080      C1084   1.547       .  S
C1080      C1083   1.551       .  S
C1080      C1114   1.496       .  S
C1081      C1085   1.527       .  S
C1081      C1087   1.539       .  S
C1081      C1086   1.532       .  S
C1081      C1104   1.502       .  S
C1082      C1090   1.378       .  A
C1082      C1085   1.385       .  A
C1083      C1094   1.389       .  A
C1083      C1086   1.392       .  A
C1084      C1098   1.390       .  A
C1084      C1087   1.387       .  A
C1085      C1088   1.374       .  A
C1086      C1092   1.371       .  A
C1087      C1095   1.377       .  A
C1088      H1101   1.083       .  S
C1088      N1089   1.358       .  A
N1089      C1090   1.355       .  A
N1089      C1131   1.430       .  S
C1090      H1091   1.082       .  S
C1092      H1102   1.081       .  S
C1092      N1093   1.344       .  A
N1093      C1094   1.355       .  A
N1093      C1124   1.422       .  S
C1094      H1100   1.082       .  S
C1095      H1097   1.083       .  S
C1095      N1096   1.355       .  A
N1096      C1098   1.356       .  A
N1096      C1127   1.441       .  S
C1098      H1099   1.081       .  S
C1103      C1104   1.402       .  A
C1103      C1108   1.386       .  A
C1103      H1109   1.083       .  S
C1104      C1105   1.402       .  A
C1105      C1106   1.383       .  A
C1105      H1110   1.079       .  S
C1106      C1107   1.402       .  A
C1106      H1111   1.084       .  S
C1107      C1108   1.403       .  A
C1108      H1112   1.082       .  S
C1113      C1114   1.403       .  A
C1113      C1356   1.387   1_554  A
C1113      H1119   1.080       .  S
C1114      C1115   1.399       .  A
C1115      C1354   1.383   1_554  A
C1115      H1120   1.081       .  S
C1116      C1353   1.384       .  A
C1116      C1117   1.401       .  A
C1116      H1121   1.083       .  S
C1117      C1118   1.404       .  A
C1118      C1351   1.389       .  A
C1118      H1122   1.080       .  S
C1123      C1124   1.334       .  D
C1123      H1125   1.087       .  S
C1124      H1126   1.087       .  S
C1127      C1128   1.340       .  D
C1127      H1129   1.086       .  S
C1128      H1130   1.088       .  S
C1131      C1132   1.339       .  D
C1131      H1133   1.089       .  S
C1132      H1134   1.091       .  S
C1135      C1136   1.345       .  D
C1135      H1137   1.086       .  S
C1136      H1138   1.087       .  S
C1139      C1140   1.337       .  D
C1139      H1141   1.087       .  S
C1140      H1142   1.087       .  S
C1143      C1144   1.336       .  D
C1143      H1145   1.089       .  S
C1144      H1146   1.089       .  S
C1147      C1148   1.331       .  D
C1147      H1149   1.085       .  S
C1148      H1150   1.085       .  S
C1151      C1152   1.350       .  D
C1151      H1153   1.087       .  S
C1152      H1154   1.086       .  S
C1155      C1156   1.341       .  D
C1155      H1157   1.086       .  S
C1156      H1158   1.087       .  S
C1159      C1160   1.349       .  D
C1159      H1161   1.084       .  S
C1160      H1162   1.083       .  S
C1163      N1204   1.451       .  S
C1163      C1164   1.349       .  D
C1163      H1165   1.087       .  S
C1164      H1404   1.081       .  S
H1166      C1402   1.086       .  S
C1167      C1168   1.349       .  D
C1167      H1169   1.086       .  S
C1168      H1170   1.087       .  S
C1171      C1172   1.398       .  A
C1171      C1176   1.383       .  A
C1171      H1177   1.078       .  S
C1172      C1173   1.402       .  A
C1173      C1174   1.378       .  A
C1173      H1178   1.082       .  S
C1174      C1175   1.400       .  A
C1174      H1179   1.082       .  S
C1175      C1176   1.405       .  A
C1176      H1180   1.080       .  S
C1181      C1182   1.405       .  A
C1181      C1186   1.386       .  A
C1181      H1187   1.080       .  S
C1182      C1183   1.402       .  A
C1183      C1184   1.386       .  A
C1183      H1188   1.082       .  S
C1184      C1185   1.403       .  A
C1184      H1189   1.083       .  S
C1185      C1186   1.401       .  A
C1186      H1190   1.079       .  S
C1191      C1193   1.534       .  S
C1191      C1195   1.516       .  S
C1191      C1194   1.532       .  S
C1191      C1413   1.503       .  S
C1192      C1196   1.552       .  S
C1192      C1198   1.558       .  S
C1192      C1197   1.559       .  S
C1192      C1423   1.502       .  S
C1193      C1201   1.379       .  A
C1194      C1205   1.376       .  A
C1195      C1209   1.360       .  A
C1196      C1199   1.393       .  A
C1197      C1203   1.394       .  A
C1198      C1206   1.399       .  A
C1199      H1212   1.083       .  S
N1200      C1201   1.346       .  A
N1200      C1398   1.431       .  S
C1201      H1202   1.083       .  S
C1203      H1213   1.082       .  S
C1203      N1204   1.361       .  A
C1205      H1211   1.081       .  S
C1206      H1208   1.082       .  S
N1207      C1209   1.350   1_554  A
N1207      C1406   1.437       .  S
C1209      H1210   1.084       .  S
C1214      C1216   1.527       .  S
C1214      C1218   1.538       .  S
C1214      C1217   1.539       .  S
C1214      C1420   1.504       .  S
C1215      C1219   1.541       .  S
C1215      C1221   1.528       .  S
C1215      C1220   1.554       .  S
C1215      C1410   1.495       .  S
C1216      C1224   1.368       .  A
C1216      C1219   1.383       .  A
C1217      C1228   1.379       .  A
C1217      C1220   1.389       .  A
C1218      C1232   1.377       .  A
C1218      C1221   1.387       .  A
C1219      C1222   1.389       .  A
C1220      C1226   1.389       .  A
C1221      C1229   1.378       .  A
C1222      H1235   1.080       .  S
C1222      N1223   1.358       .  A
N1223      C1224   1.355       .  A
N1223      C1385   1.438       .  S
C1224      H1225   1.084       .  S
C1226      H1236   1.081       .  S
C1226      N1227   1.360       .  A
N1227      C1228   1.364       .  A
N1227      C1389   1.453       .  S
C1228      H1234   1.080       .  S
C1229      H1231   1.083       .  S
C1229      N1230   1.352       .  A
N1230      C1232   1.356       .  A
N1230      C1393   1.429       .  S
C1232      H1233   1.082       .  S
O1237      C1245   1.243       .  A
O1237     Co1733   1.910       .  S
O1238      C1246   1.265       .  A
O1238     Co1258   1.979       .  S
O1239      C1247   1.247       .  A
O1239     Co1259   1.956       .  S
O1240      C1248   1.289   1_655  A
O1241      C1247   1.268       .  A
O1243      C1246   1.268   1_565  A
O1243     Co1736   2.008       .  S
O1244      C1245   1.280       .  A
O1244     Co1259   2.050       .  S
C1245      C1405   1.465       .  S
C1246      C1397   1.479       .  S
C1247      C1373   1.469       .  S
O1249      C1262   1.265   1_454  A
O1250     Co1258   2.085       .  S
O1251      C1264   1.273       .  A
O1251     Co1735   2.011       .  S
O1252      C1265   1.294       .  A
O1252     Co1260   2.044       .  S
O1253      C1265   1.281       .  A
O1253     Co1734   1.926       .  S
O1254      C1264   1.270       .  A
O1254     Co1257   1.992       .  S
O1255      C1262   1.300       .  A
O1255     Co1260   2.089       .  S
O1256      C1263   1.260   1_565  A
O1256     Co1259   1.956   1_565  S
Co1257     O1713   2.005       .  S
Co1257     O1737   2.043       .  S
Co1258     O1729   2.011   1_545  S
Co1259     O1727   1.911       .  S
Co1259     O1261   2.025       .  S
Co1260     O1719   1.994       .  S
O1261     Co1733   2.006       .  S
C1262      C1402   1.474   1_556  S
C1264      C1382   1.481       .  S
C1265      C1377   1.480       .  S
O1266      C1274   1.269       .  A
O1266     Co1762   2.013   1_545  S
O1267      C1275   1.258       .  A
O1267     Co1287   1.951       .  S
O1268      C1276   1.265       .  A
O1268     Co1288   1.965       .  S
O1269      C1277   1.271       .  A
O1269     Co1289   2.004   1_455  S
O1270      C1276   1.268       .  A
O1271     Co1286   2.070       .  S
O1272      C1275   1.268       .  A
O1272     Co1765   2.011   1_545  S
O1273      C1274   1.257       .  A
O1273     Co1288   1.967       .  S
C1274      C1394   1.466       .  S
C1275      C1386   1.468       .  S
C1276      C1361   1.453       .  S
O1278      C1291   1.252       .  A
O1279     Co1287   1.964   1_565  S
O1280      C1769   1.269   1_545  A
O1280     Co1288   2.030       .  S
O1281      C1294   1.295       .  A
O1281     Co1289   2.110       .  S
O1282      C1294   1.266       .  A
O1282     Co1763   1.890       .  S
O1283      C1293   1.256       .  A
O1283     Co1286   1.956       .  S
O1284      C1291   1.268       .  A
O1284     Co1289   2.036       .  S
O1285      C1292   1.266       .  A
O1285     Co1288   2.033       .  S
Co1286     O1742   2.009       .  S
Co1286     O1766   2.035       .  S
Co1287     O1758   1.959       .  S
Co1288     O1290   2.104       .  S
Co1289     O1748   1.884       .  S
O1290     Co1762   1.961   1_545  S
C1291      C1390   1.478       .  S
C1293      O1756   1.268       .  A
C1293      C1370   1.475       .  S
C1294      C1366   1.476       .  S
C1295      C1297   1.536       .  S
C1295      C1299   1.546       .  S
C1295      C1298   1.556       .  S
C1295      C1345   1.501       .  S
C1296      C1300   1.522       .  S
C1296      C1302   1.542       .  S
C1296      C1301   1.528       .  S
C1296      C1355   1.496       .  S
C1297      C1305   1.386       .  A
C1297      C1300   1.377       .  A
C1298      C1309   1.393       .  A
C1298      C1301   1.392       .  A
C1299      C1313   1.382       .  A
C1299      C1302   1.392       .  A
C1300      C1303   1.375       .  A
C1301      C1307   1.364       .  A
C1302      C1310   1.387       .  A
C1303      H1316   1.083       .  S
C1303      N1304   1.355       .  A
N1304      C1305   1.360       .  A
N1304      C1381   1.439       .  S
C1305      H1306   1.082       .  S
C1307      H1317   1.083       .  S
C1307      N1308   1.344       .  A
N1308      C1309   1.365       .  A
N1308      C1374   1.429       .  S
C1309      H1315   1.082       .  S
C1310      H1312   1.080       .  S
C1310      N1311   1.360       .  A
N1311      C1313   1.352       .  A
N1311      C1378   1.441       .  S
C1313      H1314   1.085       .  S
C1318      C1320   1.532       .  S
C1318      C1322   1.539       .  S
C1318      C1321   1.545       .  S
C1318      C1352   1.504       .  S
C1319      C1323   1.529       .  S
C1319      C1325   1.538       .  S
C1319      C1324   1.537       .  S
C1319      C1342   1.509       .  S
C1320      C1328   1.385       .  A
C1320      C1323   1.394       .  A
C1321      C1332   1.389       .  A
C1321      C1324   1.406       .  A
C1322      C1336   1.382       .  A
C1322      C1325   1.386       .  A
C1323      C1326   1.374       .  A
C1324      C1330   1.378       .  A
C1325      C1333   1.380       .  A
C1326      H1339   1.083       .  S
C1326      N1327   1.350       .  A
N1327      C1328   1.352       .  A
N1327      C1369   1.430       .  S
C1328      H1329   1.083       .  S
C1330      H1340   1.079       .  S
C1330      N1331   1.344       .  A
N1331      C1332   1.345       .  A
N1331      C1362   1.426       .  S
C1332      H1338   1.084       .  S
C1333      H1335   1.082       .  S
C1333      N1334   1.359       .  A
N1334      C1336   1.357       .  A
N1334      C1365   1.440       .  S
C1336      H1337   1.081       .  S
C1341      C1342   1.399       .  A
C1341      C1346   1.384       .  A
C1341      H1347   1.084       .  S
C1342      C1343   1.407       .  A
C1343      C1344   1.390       .  A
C1343      H1348   1.079       .  S
C1344      C1345   1.400       .  A
C1344      H1349   1.080       .  S
C1345      C1346   1.407       .  A
C1346      H1350   1.078       .  S
C1351      C1352   1.402       .  A
C1351      H1357   1.083       .  S
C1352      C1353   1.403       .  A
C1353      H1358   1.079       .  S
C1354      C1355   1.406       .  A
C1354      H1359   1.082       .  S
C1355      C1356   1.399       .  A
C1356      H1360   1.081       .  S
C1361      C1362   1.338       .  D
C1361      H1363   1.089       .  S
C1362      H1364   1.090       .  S
C1365      C1366   1.344       .  D
C1365      H1367   1.089       .  S
C1366      H1368   1.088       .  S
C1369      C1370   1.345       .  D
C1369      H1371   1.087       .  S
C1370      H1372   1.086       .  S
C1373      C1374   1.330       .  D
C1373      H1375   1.087       .  S
C1374      H1376   1.089       .  S
C1377      C1378   1.340       .  D
C1377      H1379   1.086       .  S
C1378      H1380   1.087       .  S
C1381      C1382   1.348       .  D
C1381      H1383   1.082       .  S
C1382      H1384   1.083       .  S
C1385      C1386   1.342       .  D
C1385      H1387   1.084       .  S
C1386      H1388   1.085       .  S
C1389      C1390   1.345       .  D
C1389      H1391   1.087       .  S
C1390      H1392   1.083       .  S
C1393      C1394   1.335       .  D
C1393      H1395   1.086       .  S
C1394      H1396   1.087       .  S
C1397      C1398   1.340       .  D
C1397      H1399   1.086   1_556  S
C1398      H1400   1.086       .  S
C1401      C1402   1.338   1_556  D
C1401      H1403   1.087       .  S
C1405      C1406   1.352   1_556  D
C1405      H1407   1.077       .  S
C1406      H1408   1.079       .  S
C1409      C1410   1.400       .  A
C1409      C1414   1.383       .  A
C1409      H1415   1.080       .  S
C1410      C1411   1.403       .  A
C1411      C1412   1.386       .  A
C1411      H1416   1.080       .  S
C1412      C1413   1.402       .  A
C1412      H1417   1.080       .  S
C1413      C1414   1.404       .  A
C1414      H1418   1.083       .  S
C1419      C1420   1.404       .  A
C1419      C1424   1.387       .  A
C1419      H1425   1.082       .  S
C1420      C1421   1.406       .  A
C1421      C1422   1.388       .  A
C1421      H1426   1.076       .  S
C1422      C1423   1.400       .  A
C1422      H1427   1.082       .  S
C1423      C1424   1.402       .  A
C1424      H1428   1.078       .  S
C1429      C1431   1.531       .  S
C1429      C1433   1.519       .  S
C1429      C1432   1.528       .  S
C1429      C1651   1.497       .  S
C1430      C1434   1.539       .  S
C1430      C1436   1.538       .  S
C1430      C1435   1.554       .  S
C1430      C1661   1.495       .  S
C1431      C1439   1.376       .  A
C1431      C1672   1.409       .  A
C1432      C1443   1.371       .  A
C1432      C1673   1.387       .  A
C1433      C1447   1.369       .  A
C1433      C1674   1.378       .  A
C1434      C1669   1.386   1_554  A
C1434      C1437   1.385       .  A
C1435      C1670   1.387   1_554  A
C1435      C1441   1.388       .  A
C1436      C1671   1.383   1_554  A
C1436      C1444   1.385       .  A
C1437      H1450   1.080       .  S
C1437      N1676   1.360   1_554  A
N1438      C1675   1.353       .  A
N1438      C1439   1.346       .  A
N1438      C1636   1.434       .  S
C1439      H1440   1.083       .  S
C1441      H1451   1.079       .  S
C1441      N1442   1.361   1_554  A
N1442      C1681   1.356       .  A
N1442      C1877   1.442   1_556  S
C1443      H1449   1.083       .  S
C1443      N1680   1.351       .  A
C1444      H1446   1.081       .  S
C1444      N1683   1.356   1_554  A
N1445      C1682   1.363       .  A
N1445      C1447   1.347       .  A
N1445      C1644   1.435       .  S
C1447      H1448   1.084       .  S
C1452      C1454   1.526       .  S
C1452      C1456   1.536       .  S
C1452      C1455   1.528       .  S
C1452      C1658   1.497       .  S
C1453      C1457   1.545       .  S
C1453      C1459   1.550       .  S
C1453      C1458   1.561       .  S
C1453      C1648   1.502       .  S
C1454      C1462   1.377       .  A
C1454      C1457   1.377       .  A
C1455      C1466   1.369       .  A
C1455      C1458   1.386       .  A
C1456      C1470   1.383       .  A
C1456      C1459   1.406       .  A
C1457      C1460   1.394       .  A
C1458      C1464   1.402       .  A
C1459      C1467   1.384       .  A
C1460      H1473   1.082       .  S
C1460      N1461   1.357       .  A
N1461      C1462   1.351       .  A
N1461      C1623   1.436       .  S
C1462      H1463   1.082       .  S
C1464      H1474   1.080       .  S
C1464      N1465   1.363       .  A
N1465      C1466   1.347       .  A
N1465      C1627   1.438       .  S
C1466      H1472   1.085       .  S
C1467      H1469   1.084       .  S
C1467      N1468   1.352       .  A
N1468      C1470   1.355       .  A
N1468      C1631   1.437       .  S
C1470      H1471   1.080       .  S
O1475      C1483   1.260       .  A
O1476      C1484   1.266   1_455  A
O1476     Co1496   1.979       .  S
O1477      C1485   1.267       .  A
O1477     Co1497   2.038       .  S
O1478      C1486   1.283       .  A
O1478     Co1736   2.074   1_554  S
O1479      C1485   1.250       .  A
O1480     Co1733   1.942   1_554  S
O1481      C1484   1.267       .  A
O1482      C1483   1.301       .  A
O1482     Co1497   2.118       .  S
C1483      C1643   1.471       .  S
C1484      C1635   1.472       .  S
C1485      C1611   1.478       .  S
O1487      C1500   1.312       .  A
O1488     Co1496   2.081       .  S
O1489      C1502   1.262       .  A
O1490      C1503   1.274       .  A
O1490     Co1498   1.991       .  S
O1491      C1503   1.276       .  A
O1492      C1502   1.270       .  A
O1492     Co1495   2.012       .  S
O1493      C1500   1.282       .  A
O1493     Co1498   1.867       .  S
O1494      C1501   1.271       .  A
O1494     Co1497   2.002       .  S
Co1495     O1718   2.005   1_565  S
Co1497     O1499   2.040       .  S
Co1498     O1716   2.032       .  S
C1500      C1640   1.466       .  S
C1502      C1620   1.506       .  S
C1503      C1615   1.507       .  S
O1504      C1512   1.274       .  A
O1505      C1513   1.260       .  A
O1505     Co1525   1.975       .  S
O1506      C1514   1.260       .  A
O1506     Co1526   1.967       .  S
O1507      C1515   1.271       .  A
O1507     Co1527   2.001   1_545  S
O1508      C1514   1.266       .  A
O1509     Co1524   2.072   1_545  S
O1510      C1513   1.271       .  A
O1511      C1512   1.262       .  A
O1511     Co1526   1.968       .  S
C1512      C1632   1.479       .  S
C1513      C1624   1.480       .  S
C1514      C1599   1.483       .  S
O1516      C1529   1.256       .  A
O1517     Co1525   2.037       .  S
O1518     Co1526   2.015       .  S
O1519      C1532   1.293       .  A
O1519     Co1527   2.096       .  S
O1520      C1532   1.272       .  A
O1521      C1531   1.261       .  A
O1521     Co1524   1.967       .  S
O1522      C1529   1.267       .  A
O1522     Co1527   2.035       .  S
O1523      C1530   1.283       .  A
O1523     Co1526   2.071       .  S
Co1526     O1528   2.066       .  S
C1529      C1628   1.487       .  S
C1531      C1608   1.480       .  S
C1532      C1604   1.476       .  S
C1533      C1535   1.544       .  S
C1533      C1537   1.555       .  S
C1533      C1536   1.548       .  S
C1533      C1583   1.500       .  S
C1534      C1538   1.538       .  S
C1534      C1540   1.553       .  S
C1534      C1539   1.541       .  S
C1534      C1593   1.494       .  S
C1535      C1543   1.392       .  A
C1535      C1538   1.371       .  A
C1536      C1547   1.386       .  A
C1536      C1539   1.385       .  A
C1537      C1551   1.397       .  A
C1537      C1540   1.401       .  A
C1538      C1541   1.392       .  A
C1539      C1545   1.385       .  A
C1540      C1548   1.394       .  A
C1541      H1554   1.084       .  S
C1541      N1542   1.362       .  A
N1542      C1543   1.366       .  A
N1542      C1619   1.456       .  S
C1543      H1544   1.082       .  S
C1545      H1555   1.082       .  S
C1545      N1546   1.362       .  A
N1546      C1547   1.360       .  A
N1546      C1612   1.449       .  S
C1547      H1553   1.083       .  S
C1548      H1550   1.082       .  S
C1548      N1549   1.359       .  A
N1549      C1551   1.357       .  A
N1549      C1616   1.453       .  S
C1551      H1552   1.083       .  S
C1556      C1558   1.535       .  S
C1556      C1560   1.544       .  S
C1556      C1559   1.556       .  S
C1556      C1590   1.505       .  S
C1557      C1561   1.521       .  S
C1557      C1563   1.538       .  S
C1557      C1562   1.540       .  S
C1557      C1580   1.507       .  S
C1558      C1566   1.385       .  A
C1558      C1561   1.382       .  A
C1559      C1570   1.397       .  A
C1559      C1562   1.406       .  A
C1560      C1574   1.384       .  A
C1560      C1563   1.387       .  A
C1561      C1564   1.372       .  A
C1562      C1568   1.377       .  A
C1563      C1571   1.379       .  A
C1564      H1577   1.083       .  S
C1564      N1565   1.352       .  A
N1565      C1566   1.358       .  A
N1565      C1607   1.431       .  S
C1566      H1567   1.082       .  S
C1568      H1578   1.083       .  S
C1568      N1569   1.344       .  A
N1569      C1570   1.356       .  A
N1569      C1600   1.434       .  S
C1570      H1576   1.082       .  S
C1571      H1573   1.081       .  S
C1571      N1572   1.360       .  A
N1572      C1574   1.356       .  A
N1572      C1603   1.443       .  S
C1574      H1575   1.080       .  S
C1579      C1580   1.404       .  A
C1579      C1584   1.390       .  A
C1579      H1585   1.083       .  S
C1580      C1581   1.404       .  A
C1581      C1582   1.384       .  A
C1581      H1586   1.080       .  S
C1582      C1583   1.401       .  A
C1582      H1587   1.084       .  S
C1583      C1584   1.403       .  A
C1584      H1588   1.081       .  S
C1589      C1590   1.404       .  A
C1589      C1832   1.388   1_554  A
C1589      H1595   1.083       .  S
C1590      C1591   1.401       .  A
C1591      C1830   1.390   1_554  A
C1591      H1596   1.079       .  S
C1592      C1829   1.389       .  A
C1592      C1593   1.405       .  A
C1592      H1597   1.082       .  S
C1593      C1594   1.402       .  A
C1594      C1827   1.385       .  A
C1594      H1598   1.082       .  S
C1599      C1600   1.347       .  D
C1599      H1601   1.087       .  S
C1600      H1602   1.088       .  S
C1603      C1604   1.341       .  D
C1603      H1605   1.088       .  S
C1604      H1606   1.087       .  S
C1607      C1608   1.343       .  D
C1607      H1609   1.088       .  S
C1608      H1610   1.088       .  S
C1611      C1612   1.349       .  D
C1611      H1613   1.085       .  S
C1612      H1614   1.087       .  S
C1615      C1616   1.360       .  D
C1615      H1617   1.084       .  S
C1616      H1618   1.084       .  S
C1619      C1620   1.364       .  D
C1619      H1621   1.088       .  S
C1620      H1622   1.088       .  S
C1623      C1624   1.343       .  D
C1623      H1625   1.086       .  S
C1624      H1626   1.086       .  S
C1627      C1628   1.348       .  D
C1627      H1629   1.089       .  S
C1628      H1630   1.087       .  S
C1631      C1632   1.342       .  D
C1631      H1633   1.087       .  S
C1632      H1634   1.088       .  S
C1635      C1636   1.339       .  D
C1635      H1637   1.085       .  S
C1636      H1638   1.087       .  S
C1639      N1680   1.426       .  S
C1639      C1640   1.339       .  D
C1639      H1641   1.087       .  S
C1640      H1880   1.087       .  S
H1642      C1878   1.084       .  S
C1643      C1644   1.336       .  D
C1643      H1645   1.086       .  S
C1644      H1646   1.088       .  S
C1647      C1648   1.398       .  A
C1647      C1652   1.385       .  A
C1647      H1653   1.073       .  S
C1648      C1649   1.404       .  A
C1649      C1650   1.384       .  A
C1649      H1654   1.083       .  S
C1650      C1651   1.402       .  A
C1650      H1655   1.082       .  S
C1651      C1652   1.405       .  A
C1652      H1656   1.082       .  S
C1657      C1658   1.407       .  A
C1657      C1662   1.376       .  A
C1657      H1663   1.084       .  S
C1658      C1659   1.398       .  A
C1659      C1660   1.392       .  A
C1659      H1664   1.075       .  S
C1660      C1661   1.408       .  A
C1660      H1665   1.082       .  S
C1661      C1662   1.395       .  A
C1662      H1666   1.082       .  S
C1667      C1669   1.531       .  S
C1667      C1671   1.529       .  S
C1667      C1670   1.531       .  S
C1667      C1889   1.495       .  S
C1668      C1672   1.546       .  S
C1668      C1674   1.541       .  S
C1668      C1673   1.544       .  S
C1668      C1899   1.501       .  S
C1669      C1677   1.373       .  A
C1670      C1681   1.373       .  A
C1671      C1685   1.375       .  A
C1672      C1675   1.390       .  A
C1673      C1679   1.381       .  A
C1674      C1682   1.389       .  A
C1675      H1688   1.082       .  S
N1676      C1677   1.356       .  A
N1676      C1874   1.440   1_556  S
C1677      H1678   1.082       .  S
C1679      H1689   1.081       .  S
C1679      N1680   1.355       .  A
C1681      H1687   1.082       .  S
C1682      H1684   1.081       .  S
N1683      C1685   1.354       .  A
N1683      C1882   1.435       .  S
C1685      H1686   1.082       .  S
C1690      C1692   1.523       .  S
C1690      C1694   1.533       .  S
C1690      C1693   1.533       .  S
C1690      C1896   1.503       .  S
C1691      C1695   1.533       .  S
C1691      C1697   1.532       .  S
C1691      C1696   1.538       .  S
C1691      C1886   1.494       .  S
C1692      C1700   1.366       .  A
C1692      C1695   1.388       .  A
C1693      C1704   1.370       .  A
C1693      C1696   1.386       .  A
C1694      C1708   1.372       .  A
C1694      C1697   1.391       .  A
C1695      C1698   1.379       .  A
C1696      C1702   1.381       .  A
C1697      C1705   1.377       .  A
C1698      H1711   1.081       .  S
C1698      N1699   1.355       .  A
N1699      C1700   1.349       .  A
N1699      C1861   1.423       .  S
C1700      H1701   1.083       .  S
C1702      H1712   1.083       .  S
C1702      N1703   1.353       .  A
N1703      C1704   1.357       .  A
N1703      C1865   1.433       .  S
C1704      H1710   1.082       .  S
C1705      H1707   1.085       .  S
C1705      N1706   1.352       .  A
N1706      C1708   1.356       .  A
N1706      C1869   1.427       .  S
C1708      H1709   1.079       .  S
O1713      C1721   1.261       .  A
O1714      C1722   1.244       .  A
O1714     Co1734   1.970       .  S
O1715      C1723   1.254       .  A
O1715     Co1735   1.939       .  S
O1716      C1724   1.256   1_565  A
O1717      C1723   1.273       .  A
O1719      C1722   1.249       .  A
O1720      C1721   1.256       .  A
O1720     Co1735   1.968       .  S
C1721      C1881   1.473       .  S
C1722      C1873   1.473       .  S
C1723      C1849   1.464       .  S
O1725      C1738   1.269       .  A
O1726     Co1734   2.023       .  S
O1727      C1740   1.242   1_545  A
O1728      C1741   1.266       .  A
O1728     Co1736   1.979       .  S
O1729      C1741   1.270       .  A
O1730      C1740   1.270       .  A
O1730     Co1733   2.021   1_565  S
O1731      C1738   1.260       .  A
O1731     Co1736   1.967       .  S
O1732      C1739   1.277       .  A
O1732     Co1735   2.064       .  S
Co1735     O1737   2.055       .  S
C1738      C1878   1.463       .  S
C1740      C1858   1.445       .  S
C1741      C1853   1.482       .  S
O1742      C1750   1.272       .  A
O1743      C1751   1.299       .  A
O1743     Co1763   2.088       .  S
O1744      C1752   1.255       .  A
O1744     Co1764   1.966       .  S
O1745      C1753   1.253   1_565  A
O1745     Co1765   2.017       .  S
O1746      C1752   1.265       .  A
O1747     Co1762   1.995   1_545  S
O1748      C1751   1.270       .  A
O1749      C1750   1.260       .  A
O1749     Co1764   1.959       .  S
C1750      C1870   1.463       .  S
C1751      C1862   1.462       .  S
C1752      C1837   1.491       .  S
O1754      C1767   1.274       .  A
O1755     Co1763   2.002       .  S
O1756     Co1764   2.023       .  S
O1757      C1770   1.264       .  A
O1757     Co1765   1.996       .  S
O1758      C1770   1.246   1_545  A
O1759      C1769   1.257       .  A
O1759     Co1762   1.989       .  S
O1760      C1767   1.292       .  A
O1760     Co1765   2.054       .  S
O1761      C1768   1.284       .  A
O1761     Co1764   2.057       .  S
Co1764     O1766   2.046       .  S
C1767      C1866   1.457       .  S
C1769      C1846   1.484       .  S
C1770      C1842   1.472       .  S
C1771      C1773   1.520       .  S
C1771      C1775   1.548       .  S
C1771      C1774   1.547       .  S
C1771      C1821   1.495       .  S
C1772      C1776   1.519       .  S
C1772      C1778   1.539       .  S
C1772      C1777   1.537       .  S
C1772      C1831   1.510       .  S
C1773      C1781   1.380       .  A
C1773      C1776   1.374       .  A
C1774      C1785   1.388       .  A
C1774      C1777   1.400       .  A
C1775      C1789   1.387       .  A
C1775      C1778   1.396       .  A
C1776      C1779   1.362       .  A
C1777      C1783   1.376       .  A
C1778      C1786   1.374       .  A
C1779      H1792   1.084       .  S
C1779      N1780   1.357       .  A
N1780      C1781   1.352       .  A
N1780      C1857   1.428       .  S
C1781      H1782   1.083       .  S
C1783      H1793   1.079       .  S
C1783      N1784   1.353       .  A
N1784      C1785   1.352       .  A
N1784      C1850   1.441       .  S
C1785      H1791   1.084       .  S
C1786      H1788   1.083       .  S
C1786      N1787   1.355       .  A
N1787      C1789   1.362       .  A
N1787      C1854   1.440       .  S
C1789      H1790   1.081       .  S
C1794      C1796   1.539       .  S
C1794      C1798   1.545       .  S
C1794      C1797   1.560       .  S
C1794      C1828   1.504       .  S
C1795      C1799   1.531       .  S
C1795      C1801   1.545       .  S
C1795      C1800   1.538       .  S
C1795      C1818   1.506       .  S
C1796      C1804   1.386       .  A
C1796      C1799   1.386       .  A
C1797      C1808   1.401       .  A
C1797      C1800   1.389       .  A
C1798      C1812   1.386       .  A
C1798      C1801   1.389       .  A
C1799      C1802   1.377       .  A
C1800      C1806   1.375       .  A
C1801      C1809   1.386       .  A
C1802      H1815   1.083       .  S
C1802      N1803   1.358       .  A
N1803      C1804   1.360       .  A
N1803      C1845   1.440       .  S
C1804      H1805   1.082       .  S
C1806      H1816   1.083       .  S
C1806      N1807   1.349       .  A
N1807      C1808   1.362       .  A
N1807      C1838   1.440       .  S
C1808      H1814   1.081       .  S
C1809      H1811   1.074       .  S
C1809      N1810   1.356       .  A
N1810      C1812   1.352       .  A
N1810      C1841   1.440       .  S
C1812      H1813   1.081       .  S
C1817      C1818   1.402       .  A
C1817      C1822   1.392       .  A
C1817      H1823   1.069       .  S
C1818      C1819   1.400       .  A
C1819      C1820   1.381       .  A
C1819      H1824   1.083       .  S
C1820      C1821   1.406       .  A
C1820      H1825   1.082       .  S
C1821      C1822   1.402       .  A
C1822      H1826   1.081       .  S
C1827      C1828   1.404       .  A
C1827      H1833   1.084       .  S
C1828      C1829   1.400       .  A
C1829      H1834   1.077       .  S
C1830      C1831   1.407       .  A
C1830      H1835   1.079       .  S
C1831      C1832   1.402       .  A
C1832      H1836   1.083       .  S
C1837      C1838   1.351       .  D
C1837      H1839   1.084       .  S
C1838      H1840   1.085       .  S
C1841      C1842   1.345       .  D
C1841      H1843   1.085       .  S
C1842      H1844   1.083       .  S
C1845      C1846   1.345       .  D
C1845      H1847   1.087       .  S
C1846      H1848   1.088       .  S
C1849      C1850   1.341       .  D
C1849      H1851   1.085       .  S
C1850      H1852   1.087       .  S
C1853      C1854   1.345       .  D
C1853      H1855   1.086       .  S
C1854      H1856   1.087       .  S
C1857      C1858   1.340       .  D
C1857      H1859   1.086       .  S
C1858      H1860   1.084       .  S
C1861      C1862   1.340       .  D
C1861      H1863   1.087       .  S
C1862      H1864   1.085       .  S
C1865      C1866   1.335       .  D
C1865      H1867   1.087       .  S
C1866      H1868   1.087       .  S
C1869      C1870   1.336       .  D
C1869      H1871   1.086       .  S
C1870      H1872   1.087       .  S
C1873      C1874   1.346   1_556  D
C1873      H1875   1.085       .  S
C1874      H1876   1.084       .  S
C1877      C1878   1.345   1_554  D
C1877      H1879   1.087       .  S
C1881      C1882   1.346       .  D
C1881      H1883   1.086   1_556  S
C1882      H1884   1.087       .  S
C1885      C1886   1.401       .  A
C1885      C1890   1.382       .  A
C1885      H1891   1.082       .  S
C1886      C1887   1.401       .  A
C1887      C1888   1.384       .  A
C1887      H1892   1.080       .  S
C1888      C1889   1.403       .  A
C1888      H1893   1.081       .  S
C1889      C1890   1.403       .  A
C1890      H1894   1.080       .  S
C1895      C1896   1.404       .  A
C1895      C1900   1.381       .  A
C1895      H1901   1.082       .  S
C1896      C1897   1.405       .  A
C1897      C1898   1.391       .  A
C1897      H1902   1.076       .  S
C1898      C1899   1.403       .  A
C1898      H1903   1.083       .  S
C1899      C1900   1.401       .  A
C1900      H1904   1.081       .  S
