geometry optimzed in LAMMPS
_audit_creation_date              2020-11-30 
_audit_creation_method            'lammps2cif' 
_symmetry_space_group_name_H-M    'P1' 
_symmetry_Int_Tables_number       1 
_symmetry_cell_setting            triclinic 
loop_ 
_symmetry_equiv_pos_as_xyz 
  x,y,z 
_cell_length_a                    47.90672527 
_cell_length_b                    47.84025716030018 
_cell_length_c                    47.87913163572336 
_cell_angle_alpha                 90.09390968886821 
_cell_angle_beta                  89.90495860715501 
_cell_angle_gamma                 90.00777347689244 
loop_ 
_atom_site_label 
_atom_site_type_symbol 
_atom_site_fract_x 
_atom_site_fract_y 
_atom_site_fract_z 
_atom_site_charge 
C1          C  0.13676060  0.72720537  0.97684031     0.80300
N2          N  0.10897086  0.73280556  0.97660729    -0.78000
C3          C  0.09476569  0.73529793  0.00122657     0.82800
N4          N  0.10871552  0.73280347  0.02602732    -0.77900
C5          C  0.13657189  0.72722797  0.02606666     0.82900
N6          N  0.15008728  0.72436118  0.00149912    -0.79600
C7          C  0.31782352  0.54760348  0.02608183     0.80300
N8          N  0.31778741  0.56134179  0.00155490    -0.78000
C9          C  0.32075967  0.54792410  0.97700076     0.82800
N10         N  0.32365224  0.51971529  0.97679699    -0.77900
C11         C  0.32354885  0.50537814  0.00145947     0.82900
N12         N  0.32093065  0.51941833  0.02620186    -0.79600
C13         C  0.02002575  0.22900342  0.02324246     0.80300
N14         N  0.04827722  0.23134357  0.02359723    -0.78000
C15         C  0.06274249  0.23198475  0.99897277     0.82800
N16         N  0.04876568  0.23069557  0.97414263    -0.77900
C17         C  0.02052815  0.22833512  0.97404353     0.82900
N18         N  0.00665732  0.22745493  0.99852755    -0.79600
C19         C  0.81948026  0.42872972  0.97637793     0.80300
N20         N  0.81656946  0.41595622  0.00124876    -0.78000
C21         C  0.81703208  0.43035606  0.02543763     0.82800
N22         N  0.82033842  0.45855312  0.02483260    -0.77900
C23         C  0.82297407  0.47195096  0.99973770     0.82900
N24         N  0.82265853  0.45692367  0.97546257    -0.79600
C25         C  0.84534876  0.01449549  0.05885580     0.80300
N26         N  0.84971987  0.98995147  0.07198584    -0.78000
C27         C  0.84758980  0.96527622  0.05836437     0.82800
N28         N  0.84113147  0.96517240  0.03069337    -0.77900
C29         C  0.83716489  0.98991650  0.01698227     0.82900
N30         N  0.83897976  0.01453204  0.03125712    -0.79600
C31         C  0.63609671  0.01338358  0.25480963     0.80300
N32         N  0.64940887  0.98862911  0.25224694    -0.78000
C33         C  0.63566751  0.96405262  0.25403854     0.82800
N34         N  0.60762689  0.96416536  0.25849308    -0.77900
C35         C  0.59370181  0.98902838  0.26090641     0.82900
N36         N  0.60805135  0.01367024  0.25915418    -0.79600
C37         C  0.34372688  0.96475119  0.94087733     0.80300
N38         N  0.34173281  0.96451676  0.96909554    -0.78000
C39         C  0.34046386  0.98916150  0.98341197     0.82800
N40         N  0.34082808  0.01403544  0.96929289    -0.77900
C41         C  0.34276407  0.01399064  0.94095222     0.82900
N42         N  0.34424208  0.98938641  0.92729223    -0.79600
C43         C  0.51948795  0.96548492  0.74073977     0.80300
N44         N  0.54778070  0.96530949  0.73877071    -0.78000
C45         C  0.56220064  0.98994788  0.74007737     0.82800
N46         N  0.54815019  0.01459494  0.74343907    -0.77900
C47         C  0.51989394  0.01443231  0.74572342     0.82900
N48         N  0.50605873  0.98997134  0.74428368    -0.79600
C49         C  0.02257946  0.74881167  0.02558548     0.80300
N50         N  0.00921757  0.75194755  0.00098916    -0.78000
C51         C  0.02270035  0.74959935  0.97635711     0.82800
N52         N  0.05056709  0.74401967  0.97625586    -0.77900
C53         C  0.06452492  0.74107272  0.00101953     0.82900
N54         N  0.05037094  0.74331177  0.02569472    -0.79600
C55         C  0.82490259  0.54577198  0.02273616     0.80300
N56         N  0.82417216  0.51743619  0.02333399    -0.78000
C57         C  0.82505262  0.50264071  0.99890545     0.82800
N58         N  0.82651651  0.51641528  0.97386051    -0.77900
C59         C  0.82743505  0.54484865  0.97356490     0.82900
N60         N  0.82659845  0.55892507  0.99795245    -0.79600
C61         C  0.13558612  0.24064530  0.97456917     0.80300
N62         N  0.14906680  0.24140978  0.99917626    -0.78000
C63         C  0.13562908  0.23894381  0.02374964     0.82800
N64         N  0.10745910  0.23570230  0.02390516    -0.77900
C65         C  0.09328397  0.23495056  0.99910502     0.82900
N66         N  0.10744207  0.23733184  0.97436134    -0.79600
C67         C  0.33368496  0.43283026  0.97672994     0.80300
N68         N  0.33612274  0.41926586  0.00130829    -0.78000
C69         C  0.33420385  0.43292267  0.02594149     0.82800
N70         N  0.32972902  0.46093096  0.02609138    -0.77900
C71         C  0.32741613  0.47497912  0.00142161     0.82900
N72         N  0.32937020  0.46086499  0.97670460    -0.79600
C73         C  0.82247529  0.01533662  0.94531176     0.80300
N74         N  0.82812219  0.01515732  0.97313440    -0.78000
C75         C  0.83047103  0.99022120  0.98694959     0.82800
N76         N  0.82746309  0.96561716  0.97269993    -0.77900
C77         C  0.82172889  0.96600227  0.94491018     0.82900
N78         N  0.81930738  0.99078774  0.93174865    -0.79600
C79         C  0.63543754  0.01453829  0.73600941     0.80300
N80         N  0.64894782  0.98996587  0.73328527    -0.78000
C81         C  0.63526358  0.96537275  0.73312646     0.82800
N82         N  0.60699024  0.96523132  0.73544650    -0.77900
C83         C  0.59284890  0.98995054  0.73790077     0.82900
N84         N  0.60718484  0.01466953  0.73843009    -0.79600
C85         C  0.33570809  0.01262934  0.05685003     0.80300
N86         N  0.33561987  0.98782278  0.07015312    -0.78000
C87         C  0.33703465  0.96338198  0.05620562     0.82800
N88         N  0.33856981  0.96367677  0.02787808    -0.77900
C89         C  0.33872267  0.98868814  0.01401141     0.82900
N90         N  0.33727971  0.01320319  0.02857458    -0.79600
C91         C  0.52097186  0.96480715  0.27161572     0.80300
N92         N  0.54901250  0.96461173  0.26738241    -0.78000
C93         C  0.56323387  0.98924656  0.26530403     0.82800
N94         N  0.54910668  0.01401099  0.26700110    -0.77900
C95         C  0.52103994  0.01397177  0.27131484     0.82900
N96         N  0.50741504  0.98942112  0.27361583    -0.79600
C97         C  0.05552810  0.04833186  0.74306756     0.80300
N98         N  0.08004185  0.06204750  0.74158717    -0.78000
C99         C  0.10469721  0.04859843  0.74305348     0.82800
N100        N  0.10500944  0.02039455  0.74603175    -0.77900
C101        C  0.08037699  0.00601586  0.74721860     0.82900
N102        N  0.05554863  0.02006741  0.74580962    -0.79600
C103        C  0.05615470  0.25753458  0.55881136     0.80300
N104        N  0.05577894  0.25865387  0.53047720    -0.78000
C105        C  0.08030953  0.25717475  0.51587724     0.82800
N106        N  0.10505672  0.25412108  0.52976623    -0.77900
C107        C  0.10510545  0.25273731  0.55810363     0.82900
N108        N  0.08073300  0.25456801  0.57206927    -0.79600
C109        C  0.10570681  0.93316712  0.75310968     0.80300
N110        N  0.10543930  0.96152885  0.75230546    -0.78000
C111        C  0.08068717  0.97533103  0.74893986     0.82800
N112        N  0.05639043  0.96059317  0.74614908    -0.77900
C113        C  0.05695247  0.93220177  0.74646578     0.82900
N114        N  0.08153249  0.91898428  0.75001447    -0.79600
C115        C  0.05577964  0.73681383  0.55655433     0.80300
N116        N  0.08060045  0.73988397  0.56932404    -0.78000
C117        C  0.10487552  0.73826263  0.55518717     0.82800
N118        N  0.10438454  0.73343632  0.52717815    -0.77900
C119        C  0.07928439  0.73064090  0.51377714     0.82900
N120        N  0.05497249  0.73218648  0.52860563    -0.79600
C121        C  0.10383425  0.93060931  0.25692102     0.80300
N122        N  0.10358607  0.95848453  0.25188177    -0.78000
C123        C  0.07881531  0.97249270  0.25092399     0.82800
N124        N  0.05432250  0.95842351  0.25472794    -0.77900
C125        C  0.05474470  0.93052921  0.25992212     0.82900
N126        N  0.07945675  0.91701522  0.26096391    -0.79600
C127        C  0.10197400  0.71850748  0.44083400     0.80300
N128        N  0.07717467  0.71424835  0.42816589    -0.78000
C129        C  0.05285666  0.71558128  0.44247687     0.82800
N130        N  0.05336194  0.72119665  0.47033355    -0.77900
C131        C  0.07836808  0.72515145  0.48353074     0.82900
N132        N  0.10261697  0.72400322  0.46863321    -0.79600
C133        C  0.05417404  0.04489808  0.23954703     0.80300
N134        N  0.05395085  0.01690331  0.24420859    -0.78000
C135        C  0.07867682  0.00271253  0.24583994     0.82800
N136        N  0.10343438  0.01669390  0.24327871    -0.77900
C137        C  0.10337421  0.04464548  0.23860710     0.82900
N138        N  0.07881895  0.05821109  0.23673964    -0.79600
C139        C  0.10373602  0.25708579  0.44207089     0.80300
N140        N  0.10441559  0.25702095  0.47044006    -0.78000
C141        C  0.07992137  0.25793491  0.48517496     0.82800
N142        N  0.05495272  0.25859565  0.47137572    -0.77900
C143        C  0.05464021  0.25870161  0.44302876     0.82900
N144        N  0.07893842  0.25795818  0.42895669    -0.79600
C145        C  0.33074343  0.46423493  0.44248135     0.80300
N146        N  0.33382261  0.48890575  0.42922208    -0.78000
C147        C  0.33244329  0.51342471  0.44301764     0.82800
N148        N  0.32788930  0.51347604  0.47094496    -0.77900
C149        C  0.32514516  0.48875221  0.48481171     0.82900
N150        N  0.32643843  0.46401738  0.47052606    -0.79600
C151        C  0.13820964  0.46368121  0.22019511     0.80300
N152        N  0.15214631  0.48813828  0.21838557    -0.78000
C153        C  0.13904766  0.51289834  0.22192100     0.82800
N154        N  0.11109769  0.51325385  0.22704888    -0.77900
C155        C  0.09663841  0.48866002  0.22837625     0.82900
N156        N  0.11037886  0.46388900  0.22534921    -0.79600
O157        O  0.28705568  0.73770879  0.17142391    -0.86400
O158        O  0.28330283  0.73488551  0.33072739    -0.86500
O159        O  0.25116193  0.69216720  0.24603907    -0.88200
O160        O  0.25126733  0.78315953  0.25267667    -0.87000
O161        O  0.28367772  0.81851493  0.25359916    -0.86600
O162        O  0.28649147  0.65977344  0.24413540    -0.87900
O163        O  0.25080410  0.73359911  0.29550538    -0.86400
O164        O  0.25174700  0.73724534  0.20397338    -0.86000
Zr165      Zr  0.27389728  0.73761385  0.25011706     2.84300
O166        O  0.30054000  0.76570368  0.27989514    -1.08000
O167        O  0.30384607  0.71130683  0.22197629    -1.08700
C168        C  0.26107105  0.73663233  0.17859579     1.06700
C169        C  0.25801841  0.73307449  0.32151918     1.06700
C170        C  0.26046256  0.66695260  0.24344911     1.09700
C171        C  0.25841726  0.80920324  0.25367627     1.07400
H172        H  0.29034630  0.69648699  0.28896457     0.33000
O173        O  0.30191491  0.70899004  0.27820361    -1.28900
H174        H  0.29022420  0.77896745  0.21149191     0.32700
O175        O  0.30186493  0.76733545  0.22306360    -1.30600
O176        O  0.37460809  0.73600739  0.33051594    -0.86400
O177        O  0.37777237  0.74070321  0.17238985    -0.87900
O178        O  0.33144400  0.65898959  0.29420961    -0.86400
O179        O  0.32798991  0.81752277  0.29877903    -0.86500
O180        O  0.33027733  0.81831059  0.20736428    -0.86200
O181        O  0.33213857  0.65984062  0.20477285    -0.86000
O182        O  0.41045489  0.69580234  0.25014043    -0.86400
O183        O  0.40873256  0.78653273  0.25521696    -0.85800
O184        O  0.37787318  0.66058848  0.24930946    -0.86900
O185        O  0.37328111  0.81879371  0.25662723    -0.86100
O186        O  0.32958172  0.69132201  0.32967686    -0.86500
O187        O  0.33150124  0.69500817  0.17221289    -0.86200
O188        O  0.33179822  0.78580983  0.17204364    -0.85800
O189        O  0.32672520  0.78240790  0.33145815    -0.86200
O190        O  0.40944463  0.73879817  0.29758377    -0.86500
O191        O  0.41025840  0.74168609  0.20756399    -0.87900
Zr192      Zr  0.32887298  0.73726117  0.30779621     2.83100
Zr193      Zr  0.33192871  0.74054919  0.19500123     2.83500
Zr194      Zr  0.33181805  0.68283125  0.24972502     2.84100
Zr195      Zr  0.32877381  0.79519370  0.25290290     2.83400
Zr196      Zr  0.38655300  0.74064830  0.25243128     2.84200
O197        O  0.35875983  0.76920936  0.22425068    -1.08400
O198        O  0.35868748  0.71080221  0.27938674    -1.08000
C199        C  0.40054304  0.73678055  0.32293044     1.06700
C200        C  0.40311696  0.74108541  0.18157930     1.09300
C201        C  0.33076782  0.66608215  0.32018851     1.06900
C202        C  0.32686087  0.80839856  0.32413404     1.07200
C203        C  0.33129108  0.81113080  0.18129356     1.06800
C204        C  0.33137720  0.66902991  0.17953905     1.06400
C205        C  0.40324481  0.66980183  0.24900150     1.06800
C206        C  0.39923560  0.81171903  0.25727359     1.06300
H207        H  0.37209325  0.70106474  0.21104880     0.33000
O208        O  0.36009546  0.71220865  0.22281093    -1.29500
H209        H  0.36801974  0.77844238  0.29349841     0.33000
O210        O  0.35697322  0.76701530  0.28112818    -1.30900
C211        C  0.52139324  0.23759584  0.47451143     0.80300
N212        N  0.54950993  0.24139802  0.47421967    -0.78000
C213        C  0.56379058  0.24289284  0.49889047     0.82800
N214        N  0.54986917  0.24084973  0.52363296    -0.77900
C215        C  0.52186496  0.23700348  0.52372367     0.82900
N216        N  0.50803470  0.23536070  0.49924138    -0.79600
C217        C  0.33235766  0.04661668  0.47459651     0.80300
N218        N  0.32908069  0.01843632  0.47514294    -0.78000
C219        C  0.32685160  0.00496089  0.50018864     0.82800
N220        N  0.32750515  0.01986281  0.52454616    -0.77900
C221        C  0.33063967  0.04805848  0.52373433     0.82900
N222        N  0.33310941  0.06094892  0.49883009    -0.79600
O223        O  0.32950094  0.16183191  0.79456020    -0.86400
O224        O  0.33254789  0.32051712  0.79637437    -0.86500
O225        O  0.37664496  0.23715126  0.82870523    -0.88200
O226        O  0.28509556  0.24279159  0.82906540    -0.87000
O227        O  0.25044115  0.24289340  0.79595784    -0.86600
O228        O  0.40951036  0.23757013  0.79372479    -0.87900
O229        O  0.33321354  0.28540214  0.82902686    -0.86400
O230        O  0.33020180  0.19473216  0.82952316    -0.86000
Zr231      Zr  0.33077717  0.24011670  0.80632313     2.84300
O232        O  0.30287384  0.26940478  0.77904907    -1.08000
O233        O  0.35773842  0.21184995  0.77707704    -1.08700
C234        C  0.33018832  0.16927877  0.82048441     1.06700
C235        C  0.33351770  0.31136714  0.82174849     1.06700
C236        C  0.40208953  0.23648191  0.81964094     1.09700
C237        C  0.25920724  0.24338846  0.82141384     1.07400
H238        H  0.37156443  0.27936780  0.78967699     0.33000
O239        O  0.35935328  0.26822126  0.77817649    -1.28900
H240        H  0.28939944  0.20144742  0.79020072     0.32700
O241        O  0.30116638  0.21289273  0.77850842    -1.30600
O242        O  0.32947906  0.31952176  0.70494313    -0.86400
O243        O  0.32791488  0.16164957  0.70357201    -0.87900
O244        O  0.40898199  0.28499246  0.74774512    -0.86400
O245        O  0.25102533  0.28773497  0.75199274    -0.86500
O246        O  0.24997780  0.19747184  0.74981525    -0.86200
O247        O  0.40842240  0.19417125  0.74888874    -0.86000
O248        O  0.37447287  0.23953193  0.67092419    -0.86400
O249        O  0.28404814  0.23967261  0.67059558    -0.85800
O250        O  0.40952673  0.23880115  0.70351905    -0.86900
O251        O  0.25088257  0.24042510  0.70525269    -0.86100
O252        O  0.37660582  0.32034008  0.74928670    -0.86500
O253        O  0.37339266  0.16141735  0.75048672    -0.86200
O254        O  0.28275820  0.16244886  0.74970948    -0.85800
O255        O  0.28608246  0.32048137  0.75261944    -0.86200
O256        O  0.32917214  0.28631169  0.67022124    -0.86500
O257        O  0.32884326  0.19637632  0.67053409    -0.87900
Zr258      Zr  0.33122191  0.29733964  0.75075170     2.83100
Zr259      Zr  0.32839201  0.18466785  0.74924925     2.83500
Zr260      Zr  0.38607104  0.23974370  0.74875766     2.84100
Zr261      Zr  0.27367629  0.24224674  0.75077137     2.83400
Zr262      Zr  0.32918100  0.24143498  0.69376840     2.84200
O263        O  0.30054147  0.21363956  0.72177102    -1.08400
O264        O  0.35846421  0.26917001  0.72134742    -1.08000
C265        C  0.32873933  0.31177086  0.67906987     1.06700
C266        C  0.32842064  0.17051234  0.67808170     1.09300
C267        C  0.40186367  0.31101429  0.74812728     1.06900
C268        C  0.26014649  0.31309054  0.75267540     1.07200
C269        C  0.25742019  0.17156111  0.74949110     1.06800
C270        C  0.39928636  0.16884250  0.75012204     1.06400
C271        C  0.40040187  0.23858023  0.67817602     1.06800
C272        C  0.25858317  0.23931920  0.67938241     1.06300
H273        H  0.36833778  0.20023639  0.70911305     0.33000
O274        O  0.35708516  0.21213715  0.72086630    -1.29500
H275        H  0.29010328  0.28205399  0.71105552     0.33000
O276        O  0.30182026  0.27028303  0.72240985    -1.30900
C277        C  0.52358109  0.73455015  0.47574664     0.80300
N278        N  0.51013562  0.73239861  0.50041289    -0.78000
C279        C  0.52329645  0.73632821  0.52498153     0.82800
N280        N  0.55107698  0.74220388  0.52497310    -0.77900
C281        C  0.56520830  0.74412921  0.50015125     0.82900
N282        N  0.55129570  0.74055994  0.47548923    -0.79600
C283        C  0.31726462  0.93276217  0.52623981     0.80300
N284        N  0.32143717  0.96084121  0.52585927    -0.78000
C285        C  0.32303976  0.97450525  0.50086483     0.82800
N286        N  0.32096757  0.95987996  0.47643506    -0.77900
C287        C  0.31656489  0.93186564  0.47707578     0.82900
N288        N  0.31467687  0.91878129  0.50190014    -0.79600
C289        C  0.31396206  0.46474480  0.55724781     0.80300
N290        N  0.31834654  0.46435872  0.52926127    -0.78000
C291        C  0.32033503  0.48895593  0.51502047     0.82800
N292        N  0.31838002  0.51382636  0.52894138    -0.77900
C293        C  0.31400461  0.51398371  0.55693751     0.82900
N294        N  0.31179390  0.48949295  0.57063706    -0.79600
C295        C  0.13375952  0.46340832  0.74759501     0.80300
N296        N  0.10582589  0.46375701  0.75223287    -0.78000
C297        C  0.09209361  0.48875517  0.75390641     0.82800
N298        N  0.10658578  0.51330392  0.75144302    -0.77900
C299        C  0.13458998  0.51263332  0.74674097     0.82900
N300        N  0.14757526  0.48775905  0.74482286    -0.79600
O301        O  0.28446017  0.73749276  0.83029252    -0.86400
O302        O  0.28152437  0.73704288  0.67164310    -0.86500
O303        O  0.25024623  0.78410039  0.75357246    -0.88200
O304        O  0.24924332  0.69201645  0.75182026    -0.87000
O305        O  0.28400341  0.65892718  0.75156932    -0.86600
O306        O  0.28358885  0.81855762  0.75145602    -0.87900
O307        O  0.24878296  0.73782070  0.70677725    -0.86400
O308        O  0.24948348  0.73767121  0.79753794    -0.86000
Zr309      Zr  0.27209533  0.73791704  0.75190052     2.84300
O310        O  0.30013967  0.70972682  0.72346378    -1.08000
O311        O  0.30049440  0.76704906  0.77896308    -1.08700
C312        C  0.25854110  0.73696314  0.82290557     1.06700
C313        C  0.25615174  0.73747481  0.68079895     1.06700
C314        C  0.25816433  0.80996683  0.75314950     1.09700
C315        C  0.25811440  0.66646259  0.75146777     1.07400
H316        H  0.28729767  0.77746652  0.71111012     0.33000
O317        O  0.29927414  0.76598918  0.72246093    -1.28900
H318        H  0.28982303  0.69834889  0.79162212     0.32700
O319        O  0.30102846  0.71008379  0.77970998    -1.30600
O320        O  0.37288033  0.73740853  0.67063330    -0.86400
O321        O  0.37462662  0.73885176  0.82958723    -0.87900
O322        O  0.32664276  0.81813538  0.70425051    -0.86400
O323        O  0.32542673  0.65972870  0.70580560    -0.86500
O324        O  0.33073609  0.65899005  0.79648462    -0.86200
O325        O  0.33008882  0.81747955  0.79490278    -0.86000
O326        O  0.40851029  0.78415795  0.74779448    -0.86400
O327        O  0.40726667  0.69415469  0.74791489    -0.85800
O328        O  0.37368788  0.81706217  0.74714199    -0.86900
O329        O  0.37473683  0.65892898  0.74879629    -0.86100
O330        O  0.32639402  0.78311695  0.67140855    -0.86500
O331        O  0.32999925  0.78455358  0.82976416    -0.86200
O332        O  0.33108435  0.69398904  0.82933462    -0.85800
O333        O  0.32514958  0.69243209  0.67076194    -0.86200
O334        O  0.40761078  0.73978475  0.70356369    -0.86500
O335        O  0.40713951  0.73898027  0.79429244    -0.87900
Zr336      Zr  0.32729706  0.73766967  0.69396147     2.83100
Zr337      Zr  0.32948135  0.73922860  0.80659912     2.83500
Zr338      Zr  0.32812638  0.79472576  0.74949066     2.84100
Zr339      Zr  0.32925557  0.68210164  0.75115387     2.83400
Zr340      Zr  0.38453697  0.73926703  0.74888621     2.84200
O341        O  0.35773003  0.71098966  0.77834575    -1.08400
O342        O  0.35592288  0.76682616  0.72065681    -1.08000
C343        C  0.39881223  0.73850089  0.67813726     1.06700
C344        C  0.39988780  0.73901144  0.82029244     1.09300
C345        C  0.32611478  0.80907954  0.67883730     1.06900
C346        C  0.32417070  0.66710588  0.67991753     1.07200
C347        C  0.33110296  0.66806275  0.82189103     1.06800
C348        C  0.33073729  0.80995771  0.82078837     1.06400
C349        C  0.39958282  0.80958617  0.74689982     1.06800
C350        C  0.40006359  0.66818502  0.74777510     1.06300
H351        H  0.36893634  0.77930858  0.78883120     0.33000
O352        O  0.35706031  0.76751721  0.77766960    -1.29500
H353        H  0.36777299  0.69834614  0.70970805     0.33000
O354        O  0.35643220  0.71000394  0.72160588    -1.30900
C355        C  0.80816337  0.51497278  0.44386971     0.80300
N356        N  0.80625747  0.49049359  0.42991257    -0.78000
C357        C  0.81133557  0.46581975  0.44259337     0.82800
N358        N  0.81838785  0.46554930  0.47006397    -0.77900
C359        C  0.82012392  0.49006698  0.48460664     0.82900
N360        N  0.81526571  0.51484304  0.47134529    -0.79600
C361        C  0.02395474  0.51239495  0.24072633     0.80300
N362        N  0.05194662  0.51302368  0.23602687    -0.78000
C363        C  0.06640148  0.48848196  0.23370256     0.82800
N364        N  0.05269900  0.46351186  0.23594610    -0.77900
C365        C  0.02480218  0.46320617  0.24084051     0.82900
N366        N  0.01093359  0.48758095  0.24313292    -0.79600
C367        C  0.60423888  0.54461281  0.23542769     0.80300
N368        N  0.60424381  0.51671177  0.24078017    -0.78000
C369        C  0.57953070  0.50270268  0.24343824     0.82800
N370        N  0.55488642  0.51687285  0.24124954    -0.77900
C371        C  0.55498979  0.54475458  0.23588930     0.82900
N372        N  0.57963896  0.55820132  0.23295109    -0.79600
C373        C  0.60472475  0.74227531  0.05661859     0.80300
N374        N  0.60471466  0.74249969  0.02823101    -0.78000
C375        C  0.57989287  0.74440035  0.01427108     0.82800
N376        N  0.55535785  0.74595704  0.02876393    -0.77900
C377        C  0.55564770  0.74582907  0.05705323     0.82900
N378        N  0.58024585  0.74402235  0.07047979    -0.79600
O379        O  0.83416480  0.81752841  0.20517125    -0.86400
O380        O  0.82622482  0.65886082  0.20278960    -0.86500
O381        O  0.87595840  0.74101275  0.17202883    -0.88200
O382        O  0.78490713  0.73983389  0.16932470    -0.87000
O383        O  0.75151824  0.74031995  0.20380398    -0.86600
O384        O  0.91023668  0.73837755  0.20541013    -0.87900
O385        O  0.82739835  0.69384479  0.16998800    -0.86400
O386        O  0.83184893  0.78478292  0.17016863    -0.86000
Zr387      Zr  0.82979860  0.73920010  0.19324191     2.84300
O388        O  0.80087070  0.71146434  0.22110139    -1.08000
O389        O  0.85902874  0.76549003  0.22211858    -1.08700
C390        C  0.83393328  0.81018261  0.17917220     1.06700
C391        C  0.82597827  0.66789810  0.17737712     1.06700
C392        C  0.90170713  0.74073936  0.17999337     1.09700
C393        C  0.75936623  0.73993183  0.17796767     1.07400
H394        H  0.86832970  0.69741930  0.20852973     0.33000
O395        O  0.85707811  0.70908204  0.22052807    -1.28900
H396        H  0.79089996  0.78010629  0.21016935     0.32700
O397        O  0.80206900  0.76789332  0.22163074    -1.30600
O398        O  0.82489139  0.65854206  0.29395652    -0.86400
O399        O  0.83217546  0.81725267  0.29547869    -0.87900
O400        O  0.90818040  0.68970398  0.24738552    -0.86400
O401        O  0.75002372  0.69455490  0.24635606    -0.86500
O402        O  0.75111782  0.78580566  0.25139756    -0.86200
O403        O  0.90961789  0.78057635  0.25313464    -0.86000
O404        O  0.87405680  0.73193018  0.32998889    -0.86400
O405        O  0.78411921  0.74026783  0.32820912    -0.85800
O406        O  0.90759204  0.73026502  0.29571352    -0.86900
O407        O  0.74960433  0.73971261  0.29497128    -0.86100
O408        O  0.87265852  0.65750556  0.24836992    -0.86500
O409        O  0.87739356  0.81614252  0.25212242    -0.86200
O410        O  0.78649857  0.81820301  0.25067672    -0.85800
O411        O  0.78224654  0.65900221  0.24691293    -0.86200
O412        O  0.82572647  0.69138912  0.32899655    -0.86500
O413        O  0.83314009  0.78243666  0.32848120    -0.87900
Zr414      Zr  0.82782758  0.68147229  0.24852507     2.83100
Zr415      Zr  0.83148178  0.79416739  0.25041838     2.83500
Zr416      Zr  0.88595643  0.73556522  0.24990473     2.84100
Zr417      Zr  0.77332047  0.73983420  0.24971153     2.83400
Zr418      Zr  0.82954819  0.73672989  0.30595282     2.84200
O419        O  0.80241126  0.76659131  0.27844235    -1.08400
O420        O  0.85695415  0.70769586  0.27759469    -1.08000
C421        C  0.82398344  0.66601199  0.31991502     1.06700
C422        C  0.83363493  0.80834598  0.32081207     1.09300
C423        C  0.89871151  0.66442435  0.24748762     1.06900
C424        C  0.75705005  0.66845927  0.24569650     1.07200
C425        C  0.76043295  0.81115055  0.25111884     1.06800
C426        C  0.90258875  0.80666557  0.25353159     1.06400
C427        C  0.89950579  0.72941998  0.32147052     1.06800
C428        C  0.75833372  0.74083285  0.32047680     1.06300
H429        H  0.87082410  0.77523227  0.29041022     0.33000
O430        O  0.85875668  0.76447320  0.27839406    -1.29500
H431        H  0.78799542  0.69866735  0.28857167     0.33000
O432        O  0.80027932  0.70999657  0.27731327    -1.30900
C433        C  0.63829144  0.75070044  0.52436494     0.80300
N434        N  0.65177191  0.75410252  0.49984557    -0.78000
C435        C  0.63791849  0.75476744  0.47534475     0.82800
N436        N  0.60968799  0.75171539  0.47529643    -0.77900
C437        C  0.59563384  0.74875191  0.50001317     0.82900
N438        N  0.61007012  0.74813378  0.52456227    -0.79600
C439        C  0.84712955  0.92974439  0.52251734     0.80300
N440        N  0.84974278  0.91659327  0.49775549    -0.78000
C441        C  0.84849059  0.93058483  0.47336884     0.82800
N442        N  0.84461885  0.95871110  0.47364432    -0.77900
C443        C  0.84225501  0.97242815  0.49860585     0.82900
N444        N  0.84332488  0.95783122  0.52306135    -0.79600
C445        C  0.60419811  0.54806945  0.74566928     0.80300
N446        N  0.57943034  0.56125749  0.74351799    -0.78000
C447        C  0.55506370  0.54734883  0.74580914     0.82800
N448        N  0.55537706  0.51937016  0.75034960    -0.77900
C449        C  0.58026590  0.50562656  0.75255447     0.82900
N450        N  0.60475873  0.52005394  0.75028052    -0.79600
C451        C  0.55315156  0.74690647  0.94211250     0.80300
N452        N  0.57720114  0.74698782  0.92751316    -0.78000
C453        C  0.60225678  0.74585421  0.94019052     0.82800
N454        N  0.60344108  0.74478033  0.96852719    -0.77900
C455        C  0.57921149  0.74484554  0.98366008     0.82900
N456        N  0.55403018  0.74578730  0.97036275    -0.79600
C457        C  0.83472749  0.51363656  0.55698722     0.80300
N458        N  0.82874850  0.51421470  0.52924848    -0.78000
C459        C  0.82749155  0.48974781  0.51447820     0.82800
N460        N  0.83208293  0.46484704  0.52767956    -0.77900
C461        C  0.83836028  0.46453462  0.55534554     0.82900
N462        N  0.83947150  0.48887147  0.56952943    -0.79600
C463        C  0.01999570  0.51354595  0.76756024     0.80300
N464        N  0.00656719  0.48889319  0.77022828    -0.78000
C465        C  0.02005073  0.46430530  0.76715768     0.82800
N466        N  0.04782042  0.46428248  0.76160419    -0.77900
C467        C  0.06185687  0.48899754  0.75923853     0.82900
N468        N  0.04781423  0.51371124  0.76190707    -0.79600
O469        O  0.87167256  0.74550161  0.83100807    -0.86400
O470        O  0.87960457  0.73757835  0.67275452    -0.86500
O471        O  0.90844314  0.69383189  0.75710228    -0.88200
O472        O  0.90921734  0.78496309  0.74987717    -0.87000
O473        O  0.87649545  0.82001815  0.74830326    -0.86600
O474        O  0.87345616  0.66097371  0.75772894    -0.87900
O475        O  0.91125066  0.73756975  0.70874457    -0.86400
O476        O  0.90751128  0.74330365  0.79915796    -0.86000
Zr477      Zr  0.88622662  0.73958709  0.75298029     2.84300
O478        O  0.86008668  0.76719798  0.72253445    -1.08000
O479        O  0.85608292  0.71274235  0.78051066    -1.08700
C480        C  0.89784156  0.74560502  0.82426405     1.06700
C481        C  0.90467309  0.73731585  0.68258924     1.06700
C482        C  0.89934122  0.66846710  0.75887722     1.09700
C483        C  0.90188451  0.81091682  0.74841857     1.07400
H484        H  0.87140664  0.69836655  0.71363920     0.33000
O485        O  0.85928872  0.71066453  0.72410354    -1.28900
H486        H  0.86842018  0.78184930  0.79016212     0.32700
O487        O  0.85730899  0.76968857  0.77853248    -1.30600
O488        O  0.78868221  0.73730587  0.66891927    -0.86400
O489        O  0.78080929  0.74410998  0.82665943    -0.87900
O490        O  0.83168409  0.66028180  0.70666633    -0.86400
O491        O  0.83526006  0.81937098  0.70272530    -0.86500
O492        O  0.82717937  0.82127709  0.79271125    -0.86200
O493        O  0.82549012  0.66207404  0.79719475    -0.86000
O494        O  0.75059141  0.69735060  0.74502388    -0.86400
O495        O  0.75049905  0.78738116  0.74364805    -0.85800
O496        O  0.78276678  0.66192635  0.74798535    -0.86900
O497        O  0.78559902  0.81999938  0.74415629    -0.86100
O498        O  0.83403048  0.69272551  0.67142362    -0.86500
O499        O  0.82662218  0.69750961  0.82961576    -0.86200
O500        O  0.82558701  0.78886498  0.82801784    -0.85800
O501        O  0.83720064  0.78383333  0.67045487    -0.86200
O502        O  0.75279993  0.73969220  0.70069716    -0.86500
O503        O  0.74892644  0.74417454  0.79086233    -0.87900
Zr504      Zr  0.83320459  0.73862656  0.69360224     2.83100
Zr505      Zr  0.82723244  0.74277000  0.80605099     2.83500
Zr506      Zr  0.82862291  0.68427135  0.75160039     2.84100
Zr507      Zr  0.83095557  0.79713522  0.74800465     2.83400
Zr508      Zr  0.77395404  0.74219029  0.74666998     2.84200
O509        O  0.80089392  0.77065070  0.77573909    -1.08400
O510        O  0.80281107  0.71216073  0.72106527    -1.08000
C511        C  0.76253183  0.73790080  0.67564705     1.06700
C512        C  0.75569468  0.74457292  0.81695435     1.09300
C513        C  0.83330006  0.66739414  0.68067520     1.06900
C514        C  0.83757991  0.80989731  0.67761363     1.07200
C515        C  0.82551302  0.81419856  0.81870169     1.06800
C516        C  0.82581169  0.67141681  0.82248539     1.06400
C517        C  0.75757194  0.67133542  0.74573586     1.06800
C518        C  0.75962530  0.81276620  0.74301525     1.06300
H519        H  0.78704419  0.70305335  0.78870860     0.33000
O520        O  0.79959624  0.71410647  0.77742355    -1.29500
H521        H  0.79321242  0.78020256  0.70590811     0.33000
O522        O  0.80388341  0.76884066  0.71866454    -1.30900
C523        C  0.55452368  0.43068280  0.25733405     0.80300
N524        N  0.57896837  0.41683774  0.25897119    -0.78000
C525        C  0.60362931  0.43007488  0.25547863     0.82800
N526        N  0.60396402  0.45804700  0.25063850    -0.77900
C527        C  0.57939870  0.47244001  0.24909932     0.82900
N528        N  0.55463552  0.45858659  0.25206757    -0.79600
C529        C  0.60525115  0.23551350  0.05743699     0.80300
N530        N  0.60498064  0.23275805  0.02923656    -0.78000
C531        C  0.58007975  0.23147394  0.01536386     0.82800
N532        N  0.55553283  0.23294568  0.02988388    -0.77900
C533        C  0.55606669  0.23576167  0.05813286     0.82900
N534        N  0.58084443  0.23698119  0.07139032    -0.79600
O535        O  0.87334526  0.23976194  0.17110098    -0.86400
O536        O  0.87711688  0.24174495  0.32981884    -0.86500
O537        O  0.90906441  0.28625528  0.24700406    -0.88200
O538        O  0.90969209  0.19535357  0.24884267    -0.87000
O539        O  0.87674439  0.16057130  0.25143013    -0.86600
O540        O  0.87403913  0.31898560  0.24854947    -0.87900
O541        O  0.90948349  0.24175704  0.29436691    -0.86400
O542        O  0.90861377  0.24101258  0.20351462    -0.86000
Zr543      Zr  0.88636532  0.24078274  0.24929072     2.84300
O544        O  0.85991696  0.21261310  0.27917051    -1.08000
O545        O  0.85701163  0.26803648  0.22133953    -1.08700
C546        C  0.89931204  0.24041134  0.17823556     1.06700
C547        C  0.90236132  0.24211189  0.32039014     1.06700
C548        C  0.89994729  0.31162550  0.24733385     1.09700
C549        C  0.90213810  0.16940432  0.24966734     1.07400
H550        H  0.87041350  0.28131145  0.28934718     0.33000
O551        O  0.85877700  0.26913646  0.27820706    -1.28900
H552        H  0.86964197  0.19996891  0.21074065     0.32700
O553        O  0.85803293  0.21154559  0.22253898    -1.30600
O554        O  0.78613042  0.24278190  0.32992781    -0.86400
O555        O  0.78339550  0.23912835  0.17150057    -0.87900
O556        O  0.82799553  0.31888449  0.29549904    -0.86400
O557        O  0.83281013  0.16085899  0.29787697    -0.86500
O558        O  0.83183208  0.16066124  0.20729943    -0.86200
O559        O  0.82664366  0.31924737  0.20551602    -0.86000
O560        O  0.75087003  0.28314840  0.25232388    -0.86400
O561        O  0.75119346  0.19198348  0.25287137    -0.85800
O562        O  0.78358593  0.31826824  0.25196016    -0.86900
O563        O  0.78652069  0.15958078  0.25229081    -0.86100
O564        O  0.83054410  0.28623869  0.33047026    -0.86500
O565        O  0.82575411  0.28437991  0.17250679    -0.86200
O566        O  0.82845460  0.19291344  0.17198120    -0.85800
O567        O  0.83234746  0.19579756  0.33081388    -0.86200
O568        O  0.75092874  0.23935974  0.29756852    -0.86500
O569        O  0.75088419  0.23855087  0.20677230    -0.87900
Zr570      Zr  0.83158729  0.24081230  0.30734174     2.83100
Zr571      Zr  0.82846076  0.23863657  0.19473250     2.83500
Zr572      Zr  0.82898638  0.29569598  0.25033095     2.84100
Zr573      Zr  0.83137753  0.18349794  0.25237539     2.83400
Zr574      Zr  0.77378331  0.23783672  0.25227647     2.84200
O575        O  0.80168929  0.20970792  0.22378882    -1.08400
O576        O  0.80193470  0.26734256  0.27931076    -1.08000
C577        C  0.76017308  0.24187389  0.32272424     1.06700
C578        C  0.75810589  0.23937111  0.18073968     1.09300
C579        C  0.82852470  0.31155815  0.32141643     1.06900
C580        C  0.83282273  0.16986642  0.32330362     1.07200
C581        C  0.83052063  0.16769231  0.18135515     1.06800
C582        C  0.82531259  0.31029592  0.18014036     1.06400
C583        C  0.75827032  0.30910198  0.25223371     1.06800
C584        C  0.76048471  0.16662849  0.25245213     1.06300
H585        H  0.78838158  0.27794265  0.21203446     0.33000
O586        O  0.80054371  0.26655379  0.22336294    -1.29500
H587        H  0.79186363  0.19954255  0.29297444     0.33000
O588        O  0.80305038  0.21118824  0.28086306    -1.30900
C589        C  0.55567382  0.43275572  0.75836904     0.80300
N590        N  0.55579577  0.46095848  0.75588512    -0.78000
C591        C  0.58042624  0.47522352  0.75677385     0.82800
N592        N  0.60498987  0.46107486  0.76017964    -0.77900
C593        C  0.60463202  0.43279250  0.76306487     0.82900
N594        N  0.58000998  0.41908129  0.76194519    -0.79600
C595        C  0.55622319  0.22493122  0.94183887     0.80300
N596        N  0.55553914  0.22787963  0.97012585    -0.78000
C597        C  0.58003832  0.22853180  0.98479323     0.82800
N598        N  0.60491785  0.22656441  0.97104482    -0.77900
C599        C  0.60533614  0.22336045  0.94293859     0.82900
N600        N  0.58108474  0.22253461  0.92876801    -0.79600
C601        C  0.63650650  0.25084650  0.52353099     0.80300
N602        N  0.60836510  0.24747875  0.52369742    -0.78000
C603        C  0.59414076  0.24659785  0.49897272     0.82800
N604        N  0.60819720  0.24858706  0.47429149    -0.77900
C605        C  0.63627183  0.25198856  0.47438173     0.82900
N606        N  0.64999357  0.25318364  0.49889713    -0.79600
C607        C  0.83382602  0.04584830  0.47583450     0.80300
N608        N  0.83805944  0.01779321  0.47497978    -0.78000
C609        C  0.83799015  0.00281962  0.49927212     0.82800
N610        N  0.83388570  0.01608101  0.52426731    -0.77900
C611        C  0.82933617  0.04408410  0.52476884     0.82900
N612        N  0.82937623  0.05844499  0.50062408    -0.79600
O613        O  0.87211045  0.23600305  0.82767127    -0.86400
O614        O  0.87564910  0.24210045  0.66977999    -0.86500
O615        O  0.90702724  0.19378116  0.74753837    -0.88200
O616        O  0.90878670  0.28401731  0.75179751    -0.87000
O617        O  0.87432787  0.31733287  0.75325081    -0.86600
O618        O  0.87398555  0.15902239  0.74678811    -0.87900
O619        O  0.90816847  0.24197705  0.70496545    -0.86400
O620        O  0.90746429  0.23690006  0.79525255    -0.86000
Zr621      Zr  0.88469031  0.23925522  0.74984479     2.84300
O622        O  0.85743398  0.26835781  0.72177582    -1.08000
O623        O  0.85631797  0.20987697  0.77668593    -1.08700
C624        C  0.89810521  0.23584285  0.82052008     1.06700
C625        C  0.90097761  0.24277607  0.67901975     1.06700
C626        C  0.89943698  0.16791545  0.74664758     1.09700
C627        C  0.90011918  0.30949962  0.75337810     1.07400
H628        H  0.86934836  0.20054670  0.70800220     0.33000
O629        O  0.85751012  0.21175481  0.71991813    -1.28900
H630        H  0.86725423  0.27786005  0.79104238     0.32700
O631        O  0.85601832  0.26662340  0.77859494    -1.30600
O632        O  0.78437753  0.24231698  0.66951328    -0.86400
O633        O  0.78147699  0.23547211  0.82737175    -0.87900
O634        O  0.82906410  0.16038778  0.70119948    -0.86400
O635        O  0.83171922  0.31915293  0.70526613    -0.86500
O636        O  0.82586330  0.31735361  0.79619989    -0.86200
O637        O  0.82685275  0.15902349  0.79224846    -0.86000
O638        O  0.74870466  0.19416049  0.74477585    -0.86400
O639        O  0.75074401  0.28521648  0.75126691    -0.85800
O640        O  0.78313530  0.16075133  0.74360681    -0.86900
O641        O  0.78400884  0.31978708  0.75081059    -0.86100
O642        O  0.82797788  0.19568536  0.66871604    -0.86500
O643        O  0.82665033  0.19169694  0.82743854    -0.86200
O644        O  0.82368592  0.28193576  0.82846276    -0.85800
O645        O  0.83104214  0.28674496  0.66982949    -0.86200
O646        O  0.74946033  0.24014085  0.70238068    -0.86500
O647        O  0.74871139  0.23479288  0.79242595    -0.87900
Zr648      Zr  0.82978438  0.24094613  0.69223763     2.83100
Zr649      Zr  0.82700726  0.23720118  0.80471652     2.83500
Zr650      Zr  0.82885611  0.18264535  0.74692593     2.84100
Zr651      Zr  0.82859842  0.29547623  0.75029648     2.83400
Zr652      Zr  0.77233740  0.23910444  0.74756043     2.84200
O653        O  0.79964941  0.26653172  0.77707102    -1.08400
O654        O  0.80128961  0.21182581  0.71910221    -1.08000
C655        C  0.75847515  0.24158198  0.67703998     1.06700
C656        C  0.75616719  0.23397154  0.81832802     1.09300
C657        C  0.82807980  0.16964300  0.67592448     1.06900
C658        C  0.83220827  0.31205260  0.67919502     1.07200
C659        C  0.82368685  0.30794212  0.82136683     1.06800
C660        C  0.82627005  0.16631136  0.81830768     1.06400
C661        C  0.75736028  0.16865764  0.74338947     1.06800
C662        C  0.75854072  0.31109324  0.75199301     1.06300
H663        H  0.78781917  0.19747909  0.78612435     0.33000
O664        O  0.79965808  0.20964580  0.77523848    -1.29500
H665        H  0.78940786  0.28058819  0.70920559     0.33000
O666        O  0.80077818  0.26844292  0.72057447    -1.30900
O667        O  0.28472024  0.23941577  0.16940755    -0.86400
O668        O  0.28116311  0.24133673  0.32723284    -0.86500
O669        O  0.24839307  0.19487092  0.24531021    -0.88200
O670        O  0.25069118  0.28674582  0.24531456    -0.87000
O671        O  0.28638807  0.31885806  0.24497480    -0.86600
O672        O  0.28069129  0.15960265  0.24903437    -0.87900
O673        O  0.24834422  0.24169181  0.29232109    -0.86400
O674        O  0.24958271  0.24008897  0.20211978    -0.86000
Zr675      Zr  0.27207220  0.24033154  0.24743797     2.84300
O676        O  0.30028742  0.26827194  0.27605518    -1.08000
O677        O  0.29995599  0.21081918  0.22026185    -1.08700
C678        C  0.25874157  0.23983801  0.17679719     1.06700
C679        C  0.25580988  0.24204795  0.31822072     1.06700
C680        C  0.25554150  0.16879265  0.24655153     1.09700
C681        C  0.26034681  0.31194778  0.24396149     1.07400
H682        H  0.28569069  0.20019131  0.28845906     0.33000
O683        O  0.29795646  0.21129158  0.27694144    -1.28900
H684        H  0.29151022  0.27918871  0.20739199     0.32700
O685        O  0.30215984  0.26727110  0.21962925    -1.30600
O686        O  0.37164466  0.23614839  0.32836021    -0.86400
O687        O  0.37546054  0.23679131  0.16984257    -0.87900
O688        O  0.32551172  0.15896474  0.29519672    -0.86400
O689        O  0.32980820  0.31719213  0.29415875    -0.86500
O690        O  0.33438364  0.31790206  0.20334700    -0.86200
O691        O  0.32566111  0.15981147  0.20370982    -0.86000
O692        O  0.40575712  0.18949811  0.25289116    -0.86400
O693        O  0.40909680  0.28040388  0.25280293    -0.85800
O694        O  0.37014568  0.15735449  0.25393987    -0.86900
O695        O  0.37705451  0.31602849  0.24990566    -0.86100
O696        O  0.32707472  0.19412826  0.32782498    -0.86500
O697        O  0.32829921  0.19277615  0.16897911    -0.86200
O698        O  0.33487755  0.28312133  0.17024038    -0.85800
O699        O  0.32866540  0.28410240  0.32880403    -0.86200
O700        O  0.40707210  0.23460083  0.29603884    -0.86500
O701        O  0.40802128  0.23691020  0.20498956    -0.87900
Zr702      Zr  0.32675413  0.23918417  0.30492955     2.83100
Zr703      Zr  0.33004512  0.23765844  0.19265170     2.83500
Zr704      Zr  0.32608010  0.18196017  0.24962681     2.84100
Zr705      Zr  0.33081785  0.29459366  0.24840227     2.83400
Zr706      Zr  0.38471876  0.23584214  0.25030466     2.84200
O707        O  0.35864550  0.26497858  0.22122335    -1.08400
O708        O  0.35445337  0.20952566  0.27796185    -1.08000
C709        C  0.39764944  0.23481524  0.32132405     1.06700
C710        C  0.40076912  0.23727379  0.17900158     1.09300
C711        C  0.32683565  0.16817087  0.32054114     1.06900
C712        C  0.32936759  0.30958700  0.32006431     1.07200
C713        C  0.33589488  0.30900882  0.17793283     1.06800
C714        C  0.32658871  0.16739234  0.17781929     1.06400
C715        C  0.39613632  0.16436199  0.25486905     1.06800
C716        C  0.40218125  0.30648727  0.25213070     1.06300
H717        H  0.36799994  0.19587649  0.21029791     0.33000
O718        O  0.35649927  0.20812363  0.22147305    -1.29500
H719        H  0.36878782  0.27687906  0.28956573     0.33000
O720        O  0.35709864  0.26571222  0.27755341    -1.30900
C721        C  0.81919641  0.09721035  0.57550120     0.20500
C722        C  0.81468450  0.12480811  0.58388518    -0.39400
C723        C  0.82006643  0.13050097  0.61190104     0.19400
C724        C  0.82893311  0.11020222  0.63043833     0.22100
C725        C  0.83334470  0.08229994  0.62200200    -0.39900
C726        C  0.82817057  0.07657857  0.59362779     0.20900
N727        N  0.81738819  0.08741927  0.54949005    -0.33200
C728        C  0.82546066  0.06033531  0.55053491    -0.10800
C729        C  0.83208101  0.05250717  0.57785746    -0.29600
N730        N  0.83282634  0.12141534  0.65593792    -0.46200
C731        C  0.82659600  0.14898432  0.65324898    -0.05400
C732        C  0.81859772  0.15535937  0.62609279    -0.22800
H733        H  0.80817765  0.14088397  0.56939891     0.19000
H734        H  0.84082268  0.06646038  0.63626034     0.17800
H735        H  0.84012522  0.03259345  0.58488883     0.14100
H736        H  0.81250370  0.17550996  0.61784448     0.13900
H737        H  0.81196954  0.09896836  0.53179676     0.32100
H738        H  0.83955439  0.11108002  0.67391059     0.34900
C739        C  0.72106830  0.24941495  0.61363160     0.20500
C740        C  0.71815850  0.25534241  0.58534321    -0.39400
C741        C  0.69115183  0.25323424  0.57487644     0.19400
C742        C  0.66842357  0.24560478  0.59104380     0.22100
C743        C  0.67132454  0.23976272  0.61973466    -0.39900
C744        C  0.69864570  0.24209126  0.63040464     0.20900
N745        N  0.74484864  0.24989118  0.62814900    -0.33200
C746        C  0.73781265  0.24301909  0.65457796    -0.10800
C747        C  0.70912812  0.23801542  0.65697721    -0.29600
N748        N  0.64514149  0.24423962  0.57521152    -0.46200
C749        C  0.65361942  0.25107342  0.54899555    -0.05400
C750        C  0.68204138  0.25691874  0.54822365    -0.22800
H751        H  0.73576164  0.26100534  0.57231922     0.19000
H752        H  0.65379640  0.23370229  0.63266653     0.17800
H753        H  0.69762864  0.23209808  0.67552553     0.14100
H754        H  0.69462824  0.26246491  0.53026172     0.13900
H755        H  0.76469593  0.25478283  0.62049542     0.32100
H756        H  0.62509810  0.23851054  0.58163212     0.34900
C757        C  0.65708922  0.21583710  0.89053239     0.20500
C758        C  0.66626513  0.21088618  0.86328815    -0.39400
C759        C  0.69361012  0.21901892  0.85758823     0.19400
C760        C  0.71085111  0.23075166  0.87760846     0.22100
C761        C  0.70173797  0.23533242  0.90521696    -0.39900
C762        C  0.67401048  0.22748297  0.91088899     0.20900
N763        N  0.63120910  0.21206907  0.90011588    -0.33200
C764        C  0.63124959  0.22139157  0.92678547    -0.10800
C765        C  0.65768723  0.23094753  0.93456190    -0.29600
N766        N  0.73571331  0.23741689  0.86633744    -0.46200
C767        C  0.73386810  0.23014339  0.83898660    -0.05400
C768        C  0.70797479  0.21855535  0.83282095    -0.22800
H769        H  0.65270007  0.20228776  0.84738088     0.19000
H770        H  0.71490202  0.24507944  0.92078913     0.17800
H771        H  0.66366606  0.24056060  0.95413686     0.14100
H772        H  0.70060030  0.21097459  0.81282998     0.13900
H773        H  0.61420544  0.20446371  0.88875534     0.32100
H774        H  0.75264317  0.24675016  0.87643199     0.34900
C775        C  0.69508499  0.34837619  0.76237174     0.20500
C776        C  0.66650738  0.35086915  0.76726901    -0.39400
C777        C  0.65609578  0.37806949  0.76743572     0.19400
C778        C  0.67267293  0.40136463  0.76310245     0.22100
C779        C  0.70169783  0.39888407  0.75877697    -0.39900
C780        C  0.71224506  0.37134523  0.75849367     0.20900
N781        N  0.70945440  0.32451494  0.76027331    -0.33200
C782        C  0.73618288  0.33194399  0.75511416    -0.10800
C783        C  0.73890913  0.36107704  0.75391015    -0.29600
N784        N  0.65680392  0.42469232  0.76203400    -0.46200
C785        C  0.63011120  0.41573235  0.76555732    -0.05400
C786        C  0.62908623  0.38690360  0.76932099    -0.22800
H787        H  0.65315071  0.33280641  0.76992156     0.19000
H788        H  0.71487788  0.41687748  0.75506912     0.17800
H789        H  0.75769628  0.37302587  0.75000561     0.14100
H790        H  0.61075822  0.37385780  0.77166035     0.13900
H791        H  0.70145922  0.30429408  0.76230035     0.32100
H792        H  0.66352497  0.44507836  0.75809419     0.34900
C793        C  0.70139179  0.24416862  0.36865568     0.20500
C794        C  0.67351603  0.24122522  0.37754001    -0.39400
C795        C  0.66851366  0.24750088  0.40582087     0.19400
C796        C  0.68975398  0.25604265  0.42347613     0.22100
C797        C  0.71730621  0.25909630  0.41464029    -0.39900
C798        C  0.72226059  0.25272282  0.38672044     0.20900
N799        N  0.71204386  0.23917302  0.34311035    -0.33200
C800        C  0.73979494  0.24447304  0.34539060    -0.10800
C801        C  0.74683920  0.25294759  0.37222920    -0.29600
N802        N  0.68037962  0.25947797  0.44946722    -0.46200
C803        C  0.65292145  0.25303812  0.44877171    -0.05400
C804        C  0.64449294  0.24563855  0.42183328    -0.22800
H805        H  0.65713868  0.23416874  0.36367139     0.19000
H806        H  0.73382930  0.26544269  0.42868902     0.17800
H807        H  0.76726606  0.25857146  0.38008702     0.14100
H808        H  0.62403852  0.23872803  0.41519319     0.13900
H809        H  0.70123968  0.23242772  0.32540303     0.32100
H810        H  0.69227120  0.26516456  0.46685763     0.34900
C811        C  0.83516251  0.07914656  0.40884087     0.20500
C812        C  0.83535835  0.08201549  0.37958880    -0.39400
C813        C  0.83438809  0.10967568  0.36958850     0.19400
C814        C  0.83338290  0.13247913  0.38742939     0.22100
C815        C  0.83315754  0.12964123  0.41638800    -0.39900
C816        C  0.83405313  0.10226231  0.42624195     0.20900
N817        N  0.83559465  0.05535818  0.42397628    -0.33200
C818        C  0.83458140  0.06385128  0.45102486    -0.10800
C819        C  0.83368857  0.09286104  0.45307111    -0.29600
N820        N  0.83269384  0.15646989  0.37315671    -0.46200
C821        C  0.83325120  0.14915928  0.34587591    -0.05400
C822        C  0.83425246  0.12010987  0.34270201    -0.22800
H823        H  0.83610913  0.06415502  0.36570859     0.19000
H824        H  0.83225955  0.14749928  0.43028257     0.17800
H825        H  0.83267903  0.10549687  0.47183387     0.14100
H826        H  0.83486297  0.10830346  0.32341074     0.13900
H827        H  0.83621883  0.03485822  0.41646763     0.32100
H828        H  0.83190415  0.17663423  0.38154894     0.34900
C829        C  0.48817021  0.23725690  0.08978594     0.20500
C830        C  0.45898344  0.23470403  0.09220125    -0.39400
C831        C  0.44813247  0.23762697  0.11942160     0.19400
C832        C  0.46514247  0.24279423  0.14221814     0.22100
C833        C  0.49400239  0.24576627  0.13976353    -0.39900
C834        C  0.50472841  0.24266354  0.11283970     0.20900
N835        N  0.50405249  0.23433818  0.06664253    -0.33200
C836        C  0.53074873  0.23785988  0.07543337    -0.10800
C837        C  0.53182169  0.24313307  0.10402849    -0.29600
N838        N  0.45033075  0.24349562  0.16591320    -0.46200
C839        C  0.42354541  0.23870589  0.15845889    -0.05400
C840        C  0.42118949  0.23516250  0.12954125    -0.22800
H841        H  0.44582373  0.23018587  0.07440777     0.19000
H842        H  0.50725573  0.24953921  0.15767353     0.17800
H843        H  0.55013827  0.24643978  0.11684232     0.14100
H844        H  0.40248375  0.23073076  0.11768763     0.13900
H845        H  0.49726609  0.22986648  0.04640430     0.32100
H846        H  0.45809643  0.24674495  0.18604270     0.34900
C847        C  0.71220298  0.24134651  0.12172772     0.20500
C848        C  0.70370573  0.23992705  0.09352383    -0.39400
C849        C  0.67459999  0.23946904  0.08907482     0.19400
C850        C  0.65595600  0.24071170  0.11116061     0.22100
C851        C  0.66435394  0.24259297  0.13893406    -0.39900
C852        C  0.69301656  0.24272627  0.14331899     0.20900
N853        N  0.73834008  0.24045274  0.13208311    -0.33200
C854        C  0.73528629  0.24101036  0.16033502    -0.10800
C855        C  0.70735989  0.24270064  0.16795830    -0.29600
N856        N  0.62969825  0.23938756  0.10220132    -0.46200
C857        C  0.63098211  0.23726993  0.07407285    -0.05400
C858        C  0.65875815  0.23723162  0.06484960    -0.22800
H859        H  0.71853458  0.23859050  0.07649641     0.19000
H860        H  0.64952818  0.24322541  0.15601438     0.17800
H861        H  0.69863765  0.24311669  0.18883086     0.14100
H862        H  0.66626231  0.23566898  0.04357287     0.13900
H863        H  0.75693439  0.23897538  0.12075241     0.32100
H864        H  0.61183545  0.23982401  0.11475552     0.34900
C865        C  0.50266098  0.37817659  0.26629895     0.20500
C866        C  0.49294954  0.35143828  0.27312290    -0.39400
C867        C  0.46568983  0.34536954  0.26469960     0.19400
C868        C  0.44914929  0.36455357  0.25080293     0.22100
C869        C  0.45890439  0.39144087  0.24400436    -0.39900
C870        C  0.48637081  0.39752172  0.25233146     0.20900
N871        N  0.52835309  0.38823536  0.27064625    -0.33200
C872        C  0.52869405  0.41420874  0.25941027    -0.10800
C873        C  0.50278679  0.42093472  0.24791740    -0.29600
N874        N  0.42409810  0.35335643  0.24480559    -0.46200
C875        C  0.42500482  0.32681228  0.25467663    -0.05400
C876        C  0.45058152  0.32109675  0.26722225    -0.22800
H877        H  0.50591729  0.33624235  0.28367602     0.19000
H878        H  0.44624587  0.40630514  0.23265572     0.17800
H879        H  0.49720557  0.43970099  0.23664353     0.14100
H880        H  0.45722089  0.30173895  0.27683043     0.13900
H881        H  0.54497279  0.37766575  0.28000097     0.32100
H882        H  0.40761622  0.36296705  0.23427378     0.34900
C883        C  0.67134273  0.39832874  0.25479619     0.20500
C884        C  0.70053010  0.39586490  0.25714067    -0.39400
C885        C  0.71119804  0.36858239  0.25423556     0.19400
C886        C  0.69401784  0.34580569  0.24932496     0.22100
C887        C  0.66517835  0.34827834  0.24677052    -0.39900
C888        C  0.65463878  0.37523259  0.24983346     0.20900
N889        N  0.65558144  0.42158432  0.25728151    -0.33200
C890        C  0.62885017  0.41271956  0.25407878    -0.10800
C891        C  0.62761101  0.38406384  0.24936712    -0.29600
N892        N  0.70871053  0.32212094  0.24797666    -0.46200
C893        C  0.73559478  0.32958928  0.25201884    -0.05400
C894        C  0.73814945  0.35845074  0.25589896    -0.22800
H895        H  0.71383609  0.41368053  0.26125404     0.19000
H896        H  0.65182921  0.33038786  0.24309168     0.17800
H897        H  0.60923383  0.37129390  0.24611147     0.14100
H898        H  0.75702323  0.37026673  0.25976996     0.13900
H899        H  0.66245285  0.44192714  0.26123704     0.32100
H900        H  0.70083217  0.30202735  0.24459953     0.34900
C901        C  0.93705430  0.37276389  0.76497095     0.20500
C902        C  0.93946163  0.40097317  0.77175131    -0.39400
C903        C  0.96636094  0.41188949  0.77049174     0.19400
C904        C  0.98941353  0.39615315  0.76290669     0.22100
C905        C  0.98705915  0.36748361  0.75651261    -0.39900
C906        C  0.95983824  0.35638053  0.75789424     0.20900
N907        N  0.91340000  0.35805807  0.76397699    -0.33200
C908        C  0.92081384  0.33188079  0.75640382    -0.10800
C909        C  0.94970161  0.32981666  0.75248138    -0.29600
N910        N  0.01234677  0.41247623  0.76152784    -0.46200
C911        C  0.00336817  0.43857124  0.76825562    -0.05400
C912        C  0.97495833  0.43879756  0.77422581    -0.22800
H913        H  0.92152079  0.41369369  0.77704589     0.19000
H914        H  0.00486874  0.35497743  0.75036363     0.17800
H915        H  0.96153150  0.31156623  0.74624278     0.14100
H916        H  0.96198868  0.45661018  0.77940571     0.13900
H917        H  0.89333001  0.36546932  0.76830161     0.32100
H918        H  0.03245959  0.40648417  0.75556871     0.34900
C919        C  0.98853869  0.58137498  0.76436518     0.20500
C920        C  0.98546123  0.60966059  0.75698898    -0.39400
C921        C  0.95871589  0.62109766  0.76125181     0.19400
C922        C  0.93683646  0.60545312  0.77190544     0.22100
C923        C  0.93999516  0.57747172  0.77962347    -0.39900
C924        C  0.96656339  0.56615242  0.77540165     0.20900
N925        N  0.01119517  0.56497725  0.76091059    -0.33200
C926        C  0.00325084  0.53923089  0.76972249    -0.10800
C927        C  0.97568150  0.53931542  0.77904962    -0.29600
N928        N  0.91321847  0.62045192  0.77262795    -0.46200
C929        C  0.91994694  0.64597953  0.76249435    -0.05400
C930        C  0.94821321  0.64732479  0.75534648    -0.22800
H931        H  0.00237058  0.62164361  0.74796170     0.19000
H932        H  0.92279021  0.56516322  0.78761750     0.17800
H933        H  0.96353900  0.52174209  0.78650143     0.14100
H934        H  0.95930335  0.66479513  0.74623963     0.13900
H935        H  0.03040650  0.57067080  0.75228341     0.32100
H936        H  0.89361034  0.61361854  0.77934771     0.34900
C937        C  0.83550320  0.35808049  0.62016012     0.20500
C938        C  0.83330554  0.36671782  0.59209109    -0.39400
C939        C  0.83867917  0.39522971  0.58706481     0.19400
C940        C  0.84595840  0.41329771  0.60845633     0.22100
C941        C  0.84845819  0.40467587  0.63620759    -0.39900
C942        C  0.84269923  0.37655183  0.64121950     0.20900
N943        N  0.83078718  0.33244618  0.63081735    -0.33200
C944        C  0.83485573  0.33495087  0.65880426    -0.10800
C945        C  0.84221663  0.36217440  0.66596925    -0.29600
N946        N  0.84800050  0.43950075  0.59914082    -0.46200
C947        C  0.84169214  0.43864358  0.57159548    -0.05400
C948        C  0.83608850  0.41123961  0.56303463    -0.22800
H949        H  0.82710440  0.35253404  0.57559971     0.19000
H950        H  0.85359315  0.41909839  0.65287469     0.17800
H951        H  0.84671877  0.37034561  0.68657515     0.14100
H952        H  0.82943722  0.40427990  0.54258486     0.13900
H953        H  0.82500334  0.31448580  0.61982258     0.32100
H954        H  0.85225877  0.45717840  0.61126220     0.34900
C955        C  0.83289025  0.60276833  0.64352631     0.20500
C956        C  0.83065186  0.57382600  0.64061765    -0.39400
C957        C  0.83232500  0.56370895  0.61330637     0.19400
C958        C  0.83593362  0.58087697  0.59033349     0.22100
C959        C  0.83833427  0.61007268  0.59328733    -0.39900
C960        C  0.83660783  0.62032444  0.62085117     0.20900
N961        N  0.83152177  0.61731080  0.66740822    -0.33200
C962        C  0.83426719  0.64448840  0.66014679    -0.10800
C963        C  0.83757238  0.64728549  0.63124228    -0.29600
N964        N  0.83688698  0.56557686  0.56660648    -0.46200
C965        C  0.83405117  0.53861509  0.57496337    -0.05400
C966        C  0.83112193  0.53680937  0.60384285    -0.22800
H967        H  0.82773162  0.56013933  0.65837086     0.19000
H968        H  0.84122295  0.62375134  0.57553626     0.17800
H969        H  0.84009852  0.66641118  0.61946471     0.14100
H970        H  0.82854681  0.51813811  0.61634127     0.13900
H971        H  0.82863645  0.60918420  0.68745222     0.32100
H972        H  0.83965787  0.57289610  0.54625024     0.34900
C973        C  0.66926601  0.74470882  0.90679786     0.20500
C974        C  0.69842990  0.74302620  0.90395697    -0.39400
C975        C  0.70863027  0.74450497  0.87642418     0.19400
C976        C  0.69110456  0.74739072  0.85362483     0.22100
C977        C  0.66216964  0.74910054  0.85643587    -0.39900
C978        C  0.65208429  0.74762015  0.88375895     0.20900
N979        N  0.65403003  0.74373600  0.93051366    -0.33200
C980        C  0.62709211  0.74603559  0.92212003    -0.10800
C981        C  0.62522772  0.74846417  0.89319208    -0.29600
N982        N  0.70564782  0.74793961  0.82972644    -0.46200
C983        C  0.73273597  0.74539347  0.83721795    -0.05400
C984        C  0.73550939  0.74326156  0.86617618    -0.22800
H985        H  0.71211623  0.74064908  0.92175447     0.19000
H986        H  0.64846473  0.75128952  0.83861446     0.17800
H987        H  0.60656842  0.75053097  0.88062890     0.14100
H988        H  0.75456024  0.74082783  0.87804296     0.13900
H989        H  0.66140709  0.74157180  0.95091051     0.32100
H990        H  0.69758403  0.74980140  0.80954737     0.34900
C991        C  0.65432197  0.60271283  0.74231980     0.20500
C992        C  0.66292735  0.63058124  0.74137326    -0.39400
C993        C  0.69170262  0.63483383  0.74226952     0.19400
C994        C  0.71065725  0.61307431  0.74403322     0.22100
C995        C  0.70195188  0.58497580  0.74490824    -0.39900
C996        C  0.67292289  0.58063846  0.74399632     0.20900
N997        N  0.62802155  0.59352408  0.74233107    -0.33200
C998        C  0.62950477  0.56532302  0.74414157    -0.10800
C999        C  0.65722865  0.55633087  0.74512794    -0.29600
N1000       N  0.73692172  0.62305524  0.74519154    -0.46200
C1001       C  0.73435954  0.65129639  0.74418918    -0.05400
C1002       C  0.70648621  0.65930583  0.74224805    -0.22800
H1003       H  0.64823176  0.64774020  0.74030722     0.19000
H1004       H  0.71661775  0.56785235  0.74647711     0.17800
H1005       H  0.66480289  0.53509497  0.74682084     0.14100
H1006       H  0.69811110  0.68030698  0.74135280     0.13900
H1007       H  0.61005873  0.60589254  0.74152581     0.32100
H1008       H  0.75531625  0.61146140  0.74684850     0.34900
C1009       C  0.84459108  0.89846628  0.59034366     0.20500
C1010       C  0.84066117  0.89633973  0.61939438    -0.39400
C1011       C  0.84222528  0.86910351  0.63037494     0.19400
C1012       C  0.84735457  0.84603348  0.61360865     0.22100
C1013       C  0.85158600  0.84818727  0.58489531    -0.39900
C1014       C  0.84992312  0.87513617  0.57403830     0.20900
N1015       N  0.84320317  0.92159246  0.57433385    -0.33200
C1016       C  0.84767225  0.91250654  0.54783589    -0.10800
C1017       C  0.85197231  0.88374984  0.54698236    -0.29600
N1018       N  0.84667016  0.82240886  0.62844753    -0.46200
C1019       C  0.84098824  0.83020807  0.65498356    -0.05400
C1020       C  0.83828092  0.85924188  0.65719382    -0.22800
H1021       H  0.83618297  0.91436471  0.63233404     0.19000
H1022       H  0.85529175  0.83006678  0.57183038     0.17800
H1023       H  0.85560453  0.87071910  0.52882052     0.14100
H1024       H  0.83338201  0.87133833  0.67568660     0.13900
H1025       H  0.83910711  0.94201829  0.58089329     0.32100
H1026       H  0.84951879  0.80212225  0.62083705     0.34900
C1027       C  0.69245152  0.74017609  0.57374705     0.20500
C1028       C  0.72006360  0.73570756  0.58183247    -0.39400
C1029       C  0.72484204  0.73577608  0.61050955     0.19400
C1030       C  0.70371056  0.73976658  0.62985755     0.22100
C1031       C  0.67575290  0.74381252  0.62171589    -0.39900
C1032       C  0.67094368  0.74394525  0.59273359     0.20900
N1033       N  0.68313961  0.74212589  0.54759716    -0.33200
C1034       C  0.65541283  0.74713177  0.54950121    -0.10800
C1035       C  0.64679797  0.74829858  0.57739518    -0.29600
N1036       N  0.71428742  0.74033755  0.65585335    -0.46200
C1037       C  0.74227106  0.73691135  0.65271146    -0.05400
C1038       C  0.74953255  0.73377974  0.62476108    -0.22800
H1039       H  0.73676917  0.73310672  0.56679717     0.19000
H1040       H  0.65919623  0.74728602  0.63673236     0.17800
H1041       H  0.62599835  0.75228905  0.58530016     0.14100
H1042       H  0.77022053  0.73127769  0.61597466     0.13900
H1043       H  0.69512692  0.74024871  0.52943408     0.32100
H1044       H  0.70329496  0.74357154  0.67444125     0.34900
C1045       C  0.72141902  0.75348176  0.38379352     0.20500
C1046       C  0.71883748  0.76092930  0.41188358    -0.39400
C1047       C  0.69187538  0.75953351  0.42288470     0.19400
C1048       C  0.66897972  0.75141111  0.40724382     0.22100
C1049       C  0.67152478  0.74443020  0.37875400    -0.39900
C1050       C  0.69873669  0.74576331  0.36763852     0.20900
N1051       N  0.74509120  0.75229612  0.36900788    -0.33200
C1052       C  0.73772674  0.74396190  0.34303465    -0.10800
C1053       C  0.70889983  0.73969525  0.34122255    -0.29600
N1054       N  0.64600923  0.74978398  0.42352552    -0.46200
C1055       C  0.65469305  0.75674878  0.44960204    -0.05400
C1056       C  0.68305701  0.76321802  0.44981665    -0.22800
H1057       H  0.73669953  0.76664200  0.42449024     0.19000
H1058       H  0.65383908  0.73773214  0.36640677     0.17800
H1059       H  0.69710143  0.73286588  0.32320296     0.14100
H1060       H  0.69588107  0.76851785  0.46766251     0.13900
H1061       H  0.76512751  0.75705191  0.37619465     0.32100
H1062       H  0.62609255  0.74323645  0.41755767     0.34900
C1063       C  0.84735582  0.84638488  0.38296948     0.20500
C1064       C  0.85488752  0.84948761  0.41086328    -0.39400
C1065       C  0.85330906  0.87660301  0.42135235     0.19400
C1066       C  0.84498562  0.89927874  0.40548135     0.22100
C1067       C  0.83803293  0.89625957  0.37706890    -0.39900
C1068       C  0.83949286  0.86880000  0.36646993     0.20900
N1069       N  0.84596199  0.82234028  0.36880294    -0.33200
C1070       C  0.83724645  0.82921337  0.34291080    -0.10800
C1071       C  0.83311385  0.85805511  0.34045031    -0.29600
N1072       N  0.84314833  0.92244088  0.42153714    -0.46200
C1073       C  0.85022869  0.91393107  0.44762720    -0.05400
C1074       C  0.85694088  0.88565150  0.44806700    -0.22800
H1075       H  0.86065080  0.83185445  0.42377276     0.19000
H1076       H  0.83114789  0.91370119  0.36446905     0.17800
H1077       H  0.82603899  0.86946553  0.32228917     0.14100
H1078       H  0.86237963  0.87297160  0.46596622     0.13900
H1079       H  0.85070412  0.80241472  0.37634478     0.32100
H1080       H  0.83647146  0.94229377  0.41544078     0.34900
C1081       C  0.69515602  0.73850981  0.14084571     0.20500
C1082       C  0.66621318  0.73853875  0.13851748    -0.39400
C1083       C  0.65587083  0.73845346  0.11138498     0.19400
C1084       C  0.67275777  0.73824578  0.08791062     0.22100
C1085       C  0.70212191  0.73789180  0.09025558    -0.39900
C1086       C  0.71266300  0.73813037  0.11779762     0.20900
N1087       N  0.70966616  0.73921270  0.16462854    -0.33200
C1088       C  0.73685848  0.73932862  0.15712339    -0.10800
C1089       C  0.73972687  0.73859372  0.12799413    -0.29600
N1090       N  0.65702122  0.73918133  0.06448807    -0.46200
C1091       C  0.63016642  0.74009694  0.07368902    -0.05400
C1092       C  0.62888472  0.73950603  0.10269864    -0.22800
H1093       H  0.65265137  0.73905556  0.15662369     0.19000
H1094       H  0.71566784  0.73789183  0.07214500     0.17800
H1095       H  0.75889447  0.73854656  0.11600083     0.14100
H1096       H  0.61050125  0.74031017  0.11586893     0.13900
H1097       H  0.70142897  0.73967003  0.18484962     0.32100
H1098       H  0.66401922  0.73958732  0.04382289     0.34900
C1099       C  0.65575198  0.59812723  0.23051847     0.20500
C1100       C  0.66486057  0.62569417  0.22722322    -0.39400
C1101       C  0.69274641  0.63068627  0.23399492     0.19400
C1102       C  0.71054584  0.60978992  0.24299977     0.22100
C1103       C  0.70140753  0.58195573  0.24617305    -0.39900
C1104       C  0.67317357  0.57695178  0.23963518     0.20900
N1105       N  0.62970071  0.58873182  0.22701118    -0.33200
C1106       C  0.63007647  0.56132924  0.23405864    -0.10800
C1107       C  0.65695795  0.55301714  0.24185681    -0.29600
N1108       N  0.73608760  0.62036222  0.24826369    -0.46200
C1109       C  0.73415943  0.64815696  0.24277320    -0.05400
C1110       C  0.70746200  0.65527137  0.23387209    -0.22800
H1111       H  0.65100626  0.64223501  0.22049961     0.19000
H1112       H  0.71505924  0.56559656  0.25367961     0.17800
H1113       H  0.66343850  0.53269104  0.24931337     0.14100
H1114       H  0.69985338  0.67574828  0.22802600     0.13900
H1115       H  0.61243374  0.60061096  0.22097721     0.32100
H1116       H  0.75357829  0.60947298  0.25538341     0.34900
C1117       C  0.96862486  0.56179144  0.24434745     0.20500
C1118       C  0.94065642  0.56994229  0.24583910    -0.39400
C1119       C  0.93592846  0.59870415  0.24563005     0.19400
C1120       C  0.95736535  0.61804222  0.24411013     0.22100
C1121       C  0.98555043  0.60978831  0.24246139    -0.39900
C1122       C  0.99035815  0.58077753  0.24261673     0.20900
N1123       N  0.97824501  0.53562094  0.24414417    -0.33200
C1124       C  0.00639148  0.53754834  0.24213257    -0.10800
C1125       C  0.01490108  0.56546054  0.24113436    -0.29600
N1126       N  0.94702857  0.64421576  0.24456361    -0.46200
C1127       C  0.91888222  0.64124725  0.24636667    -0.05400
C1128       C  0.91127611  0.61316697  0.24699478    -0.22800
H1129       H  0.92378342  0.55493252  0.24709290     0.19000
H1130       H  0.00241428  0.62478369  0.24118581     0.17800
H1131       H  0.03598337  0.57340106  0.23943835     0.14100
H1132       H  0.89045069  0.60448228  0.24838999     0.13900
H1133       H  0.96617503  0.51744467  0.24510378     0.32100
H1134       H  0.95836439  0.66284995  0.24373270     0.34900
C1135       C  0.95894476  0.35720093  0.24264327     0.20500
C1136       C  0.98675573  0.36556174  0.23772953    -0.39400
C1137       C  0.99219925  0.39427248  0.24138171     0.19400
C1138       C  0.97138637  0.41269508  0.24941225     0.22100
C1139       C  0.94394039  0.40441724  0.25436030    -0.39900
C1140       C  0.93854131  0.37612882  0.25052097     0.20900
N1141       N  0.94795302  0.33139075  0.24046591    -0.33200
C1142       C  0.92046879  0.33435272  0.24685910    -0.10800
C1143       C  0.91391224  0.36193911  0.25315873    -0.29600
N1144       N  0.98101428  0.43875205  0.25067687    -0.46200
C1145       C  0.00824124  0.43751366  0.24332058    -0.05400
C1146       C  0.01627640  0.40999037  0.23746069    -0.22800
H1147       H  0.00275859  0.35095194  0.23124771     0.19000
H1148       H  0.92781135  0.41911209  0.26035241     0.17800
H1149       H  0.89380065  0.37046131  0.25903500     0.14100
H1150       H  0.03651442  0.40267215  0.23053556     0.13900
H1151       H  0.95837562  0.31303542  0.23486989     0.32100
H1152       H  0.96937010  0.45652066  0.25578170     0.34900
C1153       C  0.81605710  0.62088355  0.37915362     0.20500
C1154       C  0.81719957  0.61226209  0.40726813    -0.39400
C1155       C  0.81004837  0.58415042  0.41226633     0.19400
C1156       C  0.80195824  0.56645389  0.39084714     0.22100
C1157       C  0.80033247  0.57514542  0.36305262    -0.39900
C1158       C  0.80802647  0.60281101  0.35804812     0.20900
N1159       N  0.82288605  0.64602537  0.36846866    -0.33200
C1160       C  0.81940755  0.64354896  0.34040823    -0.10800
C1161       C  0.81020869  0.61689768  0.33323878    -0.29600
N1162       N  0.79874607  0.54033142  0.40012727    -0.46200
C1163       C  0.80519121  0.54090464  0.42764353    -0.05400
C1164       C  0.81193794  0.56802601  0.43623452    -0.22800
H1165       H  0.82418980  0.62603763  0.42378843     0.19000
H1166       H  0.79471372  0.56097870  0.34632449     0.17800
H1167       H  0.80564716  0.60890639  0.31257546     0.14100
H1168       H  0.81917084  0.57461114  0.45660929     0.13900
H1169       H  0.82969023  0.66361048  0.37948283     0.32100
H1170       H  0.79391466  0.52282284  0.38797806     0.34900
C1171       C  0.81749828  0.39823018  0.41075582     0.20500
C1172       C  0.82483377  0.36984696  0.40813451    -0.39400
C1173       C  0.82367222  0.35881251  0.38088545     0.19400
C1174       C  0.81578424  0.37492466  0.35823077     0.22100
C1175       C  0.80794799  0.40290554  0.36090629    -0.39900
C1176       C  0.80914053  0.41382962  0.38792292     0.20900
N1177       N  0.81862574  0.41439359  0.43383460    -0.33200
C1178       C  0.81097926  0.44033605  0.42531469    -0.10800
C1179       C  0.80467153  0.44060045  0.39692379    -0.29600
N1180       N  0.81702696  0.36015571  0.33452654    -0.46200
C1181       C  0.82556854  0.33425173  0.34188559    -0.05400
C1182       C  0.82991182  0.33246549  0.37069989    -0.22800
H1183       H  0.83155807  0.35750048  0.42580610     0.19000
H1184       H  0.80197356  0.41546296  0.34309919     0.17800
H1185       H  0.79877705  0.45836056  0.38424364     0.14100
H1186       H  0.83676391  0.31445656  0.38249662     0.13900
H1187       H  0.82497927  0.40839179  0.45380137     0.32100
H1188       H  0.81208689  0.36727077  0.31450932     0.34900
C1189       C  0.44719141  0.61014180  0.74454516     0.20500
C1190       C  0.45628112  0.58210716  0.74457761    -0.39400
C1191       C  0.48543949  0.57822498  0.74398520     0.19400
C1192       C  0.50367156  0.60066540  0.74308317     0.22100
C1193       C  0.49469092  0.62835711  0.74281747    -0.39900
C1194       C  0.46592297  0.63215300  0.74371150     0.20900
N1195       N  0.42080962  0.61986939  0.74590063    -0.33200
C1196       C  0.42322955  0.64816463  0.74607004    -0.10800
C1197       C  0.45101898  0.65643978  0.74464458    -0.29600
N1198       N  0.53011783  0.59205891  0.74326560    -0.46200
C1199       C  0.52924982  0.56383934  0.74446649    -0.05400
C1200       C  0.50166662  0.55420800  0.74490008    -0.22800
H1201       H  0.44183601  0.56473977  0.74549889     0.19000
H1202       H  0.50914912  0.64575244  0.74245392     0.17800
H1203       H  0.45928052  0.67751142  0.74461911     0.14100
H1204       H  0.49452840  0.53278009  0.74607769     0.13900
H1205       H  0.40246726  0.60810808  0.74691484     0.32100
H1206       H  0.54780114  0.60485434  0.74299077     0.34900
C1207       C  0.44598631  0.74089715  0.87893919     0.20500
C1208       C  0.45477811  0.73987018  0.90704033    -0.39400
C1209       C  0.48356732  0.74415590  0.91141365     0.19400
C1210       C  0.50158573  0.74925453  0.88935775     0.22100
C1211       C  0.49287821  0.75038226  0.86169099    -0.39900
C1212       C  0.46461475  0.74580916  0.85737774     0.20900
N1213       N  0.42002450  0.73752686  0.86869008    -0.33200
C1214       C  0.42271934  0.74021980  0.84054901    -0.10800
C1215       C  0.45019455  0.74524688  0.83286281    -0.29600
N1216       N  0.52779845  0.75159259  0.89813145    -0.46200
C1217       C  0.52712686  0.74778614  0.92606562    -0.05400
C1218       C  0.49978510  0.74329081  0.93543399    -0.22800
H1219       H  0.44045666  0.73570372  0.92403695     0.19000
H1220       H  0.50726776  0.75407550  0.84463008     0.17800
H1221       H  0.45848431  0.74848519  0.81206422     0.14100
H1222       H  0.49292394  0.73899752  0.95654218     0.13900
H1223       H  0.40175528  0.73374843  0.88000960     0.32100
H1224       H  0.54530836  0.75490614  0.88551138     0.34900
C1225       C  0.22070147  0.60217469  0.74524963     0.20500
C1226       C  0.21773461  0.57344736  0.74077843    -0.39400
C1227       C  0.19047211  0.56316747  0.74247898     0.19400
C1228       C  0.16766841  0.57998258  0.74827679     0.22100
C1229       C  0.17065257  0.60896797  0.75247261    -0.39900
C1230       C  0.19811162  0.61939863  0.75069607     0.20900
N1231       N  0.24457950  0.61676409  0.74511124    -0.33200
C1232       C  0.23740659  0.64365604  0.75034602    -0.10800
C1233       C  0.20852585  0.64619949  0.75391654    -0.29600
N1234       N  0.14412571  0.56451858  0.74997171    -0.46200
C1235       C  0.15232538  0.53777675  0.74521901    -0.05400
C1236       C  0.18100196  0.53630764  0.74030360    -0.22800
H1237       H  0.23544029  0.55998902  0.73663611     0.19000
H1238       H  0.15301616  0.62232086  0.75713134     0.17800
H1239       H  0.19680179  0.66501836  0.75838520     0.14100
H1240       H  0.19348743  0.51781664  0.73648466     0.13900
H1241       H  0.26459969  0.60885365  0.74150779     0.32100
H1242       H  0.12402281  0.57156775  0.75465445     0.34900
C1243       C  0.31191839  0.56503401  0.61077621     0.20500
C1244       C  0.31100379  0.57375758  0.63855025    -0.39400
C1245       C  0.31479072  0.60226119  0.64288356     0.19400
C1246       C  0.31886225  0.62099984  0.62126139     0.22100
C1247       C  0.31953950  0.61221638  0.59314761    -0.39900
C1248       C  0.31605164  0.58330035  0.58875200     0.20900
N1249       N  0.31010415  0.53872896  0.60175589    -0.33200
C1250       C  0.31323200  0.53972405  0.57369824    -0.10800
C1251       C  0.31690479  0.56725919  0.56458935    -0.29600
N1252       N  0.32254209  0.64699991  0.63145877    -0.46200
C1253       C  0.32098676  0.64431695  0.65966237    -0.05400
C1254       C  0.31610254  0.61677393  0.66743333    -0.22800
H1255       H  0.30817882  0.55923761  0.65564614     0.19000
H1256       H  0.32309318  0.62664559  0.57612385     0.17800
H1257       H  0.32043223  0.57442097  0.54344922     0.14100
H1258       H  0.31402674  0.60841704  0.68833925     0.13900
H1259       H  0.30746677  0.52100343  0.61421825     0.32100
H1260       H  0.32621223  0.66524029  0.62006470     0.34900
C1261       C  0.32343972  0.86805707  0.63282533     0.20500
C1262       C  0.32353211  0.89628865  0.62430805    -0.39400
C1263       C  0.32052622  0.90080131  0.59537432     0.19400
C1264       C  0.31753070  0.87874075  0.57687469     0.22100
C1265       C  0.31753569  0.85087450  0.58527033    -0.39900
C1266       C  0.32068596  0.84644781  0.61378147     0.20900
N1267       N  0.32582830  0.85775214  0.65890483    -0.33200
C1268       C  0.32466048  0.82950203  0.65598616    -0.10800
C1269       C  0.32153939  0.82182686  0.62815678    -0.29600
N1270       N  0.31542716  0.88784992  0.55070465    -0.46200
C1271       C  0.31726651  0.91602619  0.55193822    -0.05400
C1272       C  0.32039893  0.92513446  0.57956043    -0.22800
H1273       H  0.32589726  0.91333806  0.63899716     0.19000
H1274       H  0.31541342  0.83380413  0.57054920     0.17800
H1275       H  0.31988590  0.80094133  0.61956799     0.14100
H1276       H  0.32276717  0.94639428  0.58693874     0.13900
H1277       H  0.32807923  0.86912690  0.67740462     0.32100
H1278       H  0.31336461  0.87535369  0.53289881     0.34900
C1279       C  0.49032418  0.73914829  0.59253617     0.20500
C1280       C  0.48645214  0.74556910  0.62105477    -0.39400
C1281       C  0.45933666  0.74090986  0.63170493     0.19400
C1282       C  0.43793366  0.73081067  0.61510253     0.22100
C1283       C  0.44186762  0.72413315  0.58698642    -0.39900
C1284       C  0.46869707  0.72867702  0.57650395     0.20900
N1285       N  0.51348495  0.74272269  0.57671154    -0.33200
C1286       C  0.50610857  0.73447021  0.55055830    -0.10800
C1287       C  0.47846211  0.72546000  0.54989240    -0.29600
N1288       N  0.41400226  0.72890546  0.62950569    -0.46200
C1289       C  0.41991228  0.73765009  0.65570357    -0.05400
C1290       C  0.44806849  0.74523261  0.65802223    -0.22800
H1291       H  0.50308661  0.75394826  0.63384022     0.19000
H1292       H  0.42505874  0.71638535  0.57402074     0.17800
H1293       H  0.46668592  0.71829253  0.53197219     0.14100
H1294       H  0.45869507  0.75315835  0.67632752     0.13900
H1295       H  0.53267717  0.75087987  0.58306952     0.32100
H1296       H  0.39475911  0.72197431  0.62193214     0.34900
C1297       C  0.50503767  0.37934921  0.74944119     0.20500
C1298       C  0.49623930  0.35183770  0.74556912    -0.39400
C1299       C  0.46747572  0.34773815  0.74601764     0.19400
C1300       C  0.44863029  0.36932282  0.74995825     0.22100
C1301       C  0.45750561  0.39719105  0.75344561    -0.39900
C1302       C  0.48660097  0.40136152  0.75302996     0.20900
N1303       N  0.53142584  0.38812071  0.75084936    -0.33200
C1304       C  0.53021130  0.41601360  0.75526632    -0.10800
C1305       C  0.50255639  0.42527145  0.75660538    -0.29600
N1306       N  0.42236643  0.35928344  0.75075006    -0.46200
C1307       C  0.42492493  0.33119812  0.74738719    -0.05400
C1308       C  0.45269821  0.32337752  0.74420849    -0.22800
H1309       H  0.51081586  0.33472987  0.74299315     0.19000
H1310       H  0.44295258  0.41417774  0.75677409     0.17800
H1311       H  0.49520207  0.44635288  0.76025223     0.14100
H1312       H  0.46104436  0.30250096  0.74160648     0.13900
H1313       H  0.54928356  0.37569819  0.74902762     0.32100
H1314       H  0.40402276  0.37066629  0.75391032     0.34900
C1315       C  0.46658743  0.22999057  0.85624298     0.20500
C1316       C  0.49551207  0.22742933  0.85867989    -0.39400
C1317       C  0.50576697  0.22646393  0.88593897     0.19400
C1318       C  0.48875933  0.22798954  0.90928815     0.22100
C1319       C  0.45955107  0.23032481  0.90681322    -0.39900
C1320       C  0.44914485  0.23126606  0.87929806     0.20900
N1321       N  0.45200260  0.23173123  0.83247591    -0.33200
C1322       C  0.42489209  0.23410418  0.84014287    -0.10800
C1323       C  0.42218967  0.23382792  0.86925050    -0.29600
N1324       N  0.50421901  0.22739284  0.93286771    -0.46200
C1325       C  0.53111710  0.22543271  0.92408109    -0.05400
C1326       C  0.53270330  0.22470456  0.89502089    -0.22800
H1327       H  0.50911246  0.22652021  0.84061681     0.19000
H1328       H  0.44600070  0.23158842  0.92487548     0.17800
H1329       H  0.40316524  0.23543610  0.88136184     0.14100
H1330       H  0.55126606  0.22353937  0.88213195     0.13900
H1331       H  0.46009764  0.23133546  0.81219739     0.32100
H1332       H  0.49701860  0.22850286  0.95343955     0.34900
C1333       C  0.31849152  0.39712154  0.58881511     0.20500
C1334       C  0.32421752  0.36836085  0.59144337    -0.39400
C1335       C  0.32388609  0.35789685  0.61894991     0.19400
C1336       C  0.31833216  0.37490247  0.64173985     0.22100
C1337       C  0.31226376  0.40321051  0.63908145    -0.39900
C1338       C  0.31254389  0.41350635  0.61192800     0.20900
N1339       N  0.31899202  0.41291860  0.56548378    -0.33200
C1340       C  0.31337228  0.43932322  0.57433215    -0.10800
C1341       C  0.30901076  0.44026796  0.60301864    -0.29600
N1342       N  0.31977366  0.36061010  0.66562237    -0.46200
C1343       C  0.32615887  0.33409761  0.65832737    -0.05400
C1344       C  0.32883871  0.33140103  0.62933063    -0.22800
H1345       H  0.32904585  0.35529813  0.57360165     0.19000
H1346       H  0.30811015  0.41642996  0.65698651     0.17800
H1347       H  0.30492786  0.45843581  0.61591206     0.14100
H1348       H  0.33378928  0.31271273  0.61755405     0.13900
H1349       H  0.32363379  0.40638135  0.54517617     0.32100
H1350       H  0.31637698  0.36846036  0.68572390     0.34900
C1351       C  0.20065248  0.35820697  0.75389721     0.20500
C1352       C  0.17231876  0.36614439  0.75538569    -0.39400
C1353       C  0.16697991  0.39484348  0.75152282     0.19400
C1354       C  0.18840476  0.41359497  0.74648276     0.22100
C1355       C  0.21637881  0.40579569  0.74527421    -0.39900
C1356       C  0.22163809  0.37754788  0.74929107     0.20900
N1357       N  0.21158523  0.33238300  0.75604983    -0.33200
C1358       C  0.23957865  0.33576393  0.75286942    -0.10800
C1359       C  0.24654317  0.36364370  0.74882838    -0.29600
N1360       N  0.17865533  0.43945839  0.74379825    -0.46200
C1361       C  0.15071035  0.43785088  0.74735949    -0.05400
C1362       C  0.14235386  0.41021504  0.75215416    -0.22800
H1363       H  0.15580222  0.35118636  0.75919590     0.19000
H1364       H  0.23291266  0.42075878  0.74149559     0.17800
H1365       H  0.26705743  0.37248822  0.74532463     0.14100
H1366       H  0.12146134  0.40258733  0.75615945     0.13900
H1367       H  0.20074862  0.31370398  0.75921472     0.32100
H1368       H  0.19066447  0.45735989  0.74030307     0.34900
C1369       C  0.32799054  0.08067531  0.59116448     0.20500
C1370       C  0.32473194  0.08338398  0.62027930    -0.39400
C1371       C  0.32717428  0.11076121  0.63089343     0.19400
C1372       C  0.33228284  0.13345731  0.61370476     0.22100
C1373       C  0.33557903  0.13077259  0.58488761    -0.39900
C1374       C  0.33326635  0.10366045  0.57444047     0.20900
N1375       N  0.32648573  0.05720550  0.57553802    -0.33200
C1376       C  0.33089574  0.06574585  0.54885959    -0.10800
C1377       C  0.33519392  0.09448326  0.54753733    -0.29600
N1378       N  0.33333823  0.15721428  0.62841080    -0.46200
C1379       C  0.32894672  0.14987694  0.65533585    -0.05400
C1380       C  0.32510290  0.12101532  0.65784269    -0.22800
H1381       H  0.32055050  0.06562004  0.63361052     0.19000
H1382       H  0.33955613  0.14856732  0.57151396     0.17800
H1383       H  0.33902433  0.10711483  0.52917817     0.14100
H1384       H  0.32110403  0.10924371  0.67670996     0.13900
H1385       H  0.32255307  0.03689496  0.58247938     0.32100
H1386       H  0.33684332  0.17726692  0.62051492     0.34900
C1387       C  0.33806957  0.09938251  0.42287311     0.20500
C1388       C  0.34094840  0.12691337  0.41376113    -0.39400
C1389       C  0.33603957  0.13125484  0.38544114     0.19400
C1390       C  0.32911108  0.10983900  0.36725432     0.22100
C1391       C  0.32657210  0.08197070  0.37640634    -0.39900
C1392       C  0.33124235  0.07758210  0.40509744     0.20900
N1393       N  0.33999749  0.09053874  0.44919453    -0.33200
C1394       C  0.33429617  0.06284169  0.44864999    -0.10800
C1395       C  0.32892120  0.05375296  0.42141257    -0.29600
N1396       N  0.32492841  0.11998749  0.34135745    -0.46200
C1397       C  0.32906675  0.14799028  0.34350210    -0.05400
C1398       C  0.33607287  0.15565940  0.37064056    -0.22800
H1399       H  0.34590754  0.14388193  0.42790183     0.19000
H1400       H  0.32076133  0.06515747  0.36243129     0.17800
H1401       H  0.32303664  0.03297102  0.41468370     0.14100
H1402       H  0.34053011  0.17641201  0.37852664     0.13900
H1403       H  0.34426123  0.10293662  0.46666940     0.32100
H1404       H  0.31938208  0.10870159  0.32351623     0.34900
C1405       C  0.45881932  0.23753965  0.63139737     0.20500
C1406       C  0.48670098  0.24017112  0.62226356    -0.39400
C1407       C  0.49091585  0.23721413  0.59327143     0.19400
C1408       C  0.46894089  0.23199706  0.57524319     0.22100
C1409       C  0.44144294  0.22924900  0.58429191    -0.39900
C1410       C  0.43728645  0.23227815  0.61288157     0.20900
N1411       N  0.44872241  0.24016150  0.65756541    -0.33200
C1412       C  0.42066127  0.23671349  0.65520324    -0.10800
C1413       C  0.41292322  0.23164786  0.62770138    -0.29600
N1414       N  0.47766618  0.23085749  0.54883681    -0.46200
C1415       C  0.50547940  0.23541705  0.54954231    -0.05400
C1416       C  0.51477227  0.23938175  0.57696084    -0.22800
H1417       H  0.50365950  0.24459490  0.63650912     0.19000
H1418       H  0.42438837  0.22548535  0.56996054     0.17800
H1419       H  0.39212133  0.22826683  0.61955402     0.14100
H1420       H  0.53580324  0.24385599  0.58387679     0.13900
H1421       H  0.46005283  0.24442940  0.67569910     0.32100
H1422       H  0.46517642  0.22758220  0.53125424     0.34900
C1423       C  0.46690027  0.23387698  0.42417226     0.20500
C1424       C  0.43909360  0.23179137  0.41570638    -0.39400
C1425       C  0.43463521  0.23257955  0.38696026     0.19400
C1426       C  0.45617758  0.23521864  0.36785515     0.22100
C1427       C  0.48426075  0.23735466  0.37641190    -0.39900
C1428       C  0.48879619  0.23660708  0.40548018     0.20900
N1429       N  0.47614883  0.23377695  0.45045181    -0.33200
C1430       C  0.50424257  0.23650655  0.44900138    -0.10800
C1431       C  0.51309746  0.23836988  0.42118677    -0.29600
N1432       N  0.44597365  0.23589320  0.34164969    -0.46200
C1433       C  0.41781587  0.23381524  0.34443334    -0.05400
C1434       C  0.41008645  0.23161566  0.37237076    -0.22800
H1435       H  0.42209814  0.22986578  0.43051213     0.19000
H1436       H  0.50120888  0.23960859  0.36161517     0.17800
H1437       H  0.53423449  0.24077975  0.41355710     0.14100
H1438       H  0.38921089  0.22992821  0.38090830     0.13900
H1439       H  0.46385752  0.23206607  0.46842022     0.32100
H1440       H  0.45734925  0.23805379  0.32314798     0.34900
C1441       C  0.44922505  0.61068970  0.24501631     0.20500
C1442       C  0.45790653  0.58257730  0.24696906    -0.39400
C1443       C  0.48619834  0.57746312  0.24060788     0.19400
C1444       C  0.50402562  0.59880682  0.23268041     0.22100
C1445       C  0.49536760  0.62661363  0.23054077    -0.39900
C1446       C  0.46747624  0.63171669  0.23724725     0.20900
N1447       N  0.42372119  0.62139347  0.25032226    -0.33200
C1448       C  0.42610417  0.64938115  0.24611230    -0.10800
C1449       C  0.45310781  0.65650297  0.23801156    -0.29600
N1450       N  0.53001083  0.58929268  0.22912487    -0.46200
C1451       C  0.52925982  0.56163820  0.23499605    -0.05400
C1452       C  0.50214089  0.55325839  0.24204190    -0.22800
H1453       H  0.44388455  0.56608869  0.25350082     0.19000
H1454       H  0.50957516  0.64322831  0.22474529     0.17800
H1455       H  0.46110374  0.67708493  0.23307756     0.14100
H1456       H  0.49531900  0.53269014  0.24850166     0.13900
H1457       H  0.40590708  0.61043116  0.25652331     0.32100
H1458       H  0.54749146  0.60125822  0.22386423     0.34900
C1459       C  0.44934629  0.74140864  0.12259386     0.20500
C1460       C  0.45773803  0.74289788  0.09436988    -0.39400
C1461       C  0.48677363  0.74415079  0.08974348     0.19400
C1462       C  0.50554424  0.74380171  0.11168911     0.22100
C1463       C  0.49726590  0.74187781  0.13955489    -0.39900
C1464       C  0.46858625  0.74072641  0.14410737     0.20900
N1465       N  0.42318252  0.74125174  0.13298508    -0.33200
C1466       C  0.42615069  0.74059713  0.16120542    -0.10800
C1467       C  0.45416523  0.73997681  0.16878449    -0.29600
N1468       N  0.53174754  0.74510753  0.10240969    -0.46200
C1469       C  0.53020462  0.74605426  0.07422987    -0.05400
C1470       C  0.50239249  0.74565376  0.06532046    -0.22800
H1471       H  0.44284601  0.74339189  0.07740645     0.19000
H1472       H  0.51216107  0.74159557  0.15653428     0.17800
H1473       H  0.46286079  0.73965784  0.18964152     0.14100
H1474       H  0.49473607  0.74588785  0.04406962     0.13900
H1475       H  0.40457199  0.74199394  0.12167637     0.32100
H1476       H  0.54974012  0.74486090  0.11472528     0.34900
C1477       C  0.43915338  0.72740319  0.38570048     0.20500
C1478       C  0.44268598  0.72117061  0.41391822    -0.39400
C1479       C  0.46964003  0.72483058  0.42429025     0.19400
C1480       C  0.49171166  0.73401761  0.40801762     0.22100
C1481       C  0.48828102  0.73973373  0.37937804    -0.39900
C1482       C  0.46104767  0.73606825  0.36888163     0.20900
N1483       N  0.41514403  0.72668586  0.37145286    -0.33200
C1484       C  0.42153986  0.73479478  0.34518423    -0.10800
C1485       C  0.45004593  0.74071422  0.34261904    -0.29600
N1486       N  0.51472524  0.73781315  0.42384390    -0.46200
C1487       C  0.50680693  0.73107546  0.45023719    -0.05400
C1488       C  0.47900754  0.72260741  0.45108887    -0.22800
H1489       H  0.42545960  0.71473916  0.42708759     0.19000
H1490       H  0.50525755  0.74724191  0.36647229     0.17800
H1491       H  0.46105780  0.74791893  0.32423179     0.14100
H1492       H  0.46679882  0.71687411  0.46925285     0.13900
H1493       H  0.39553172  0.72106573  0.37920252     0.32100
H1494       H  0.53409770  0.74545273  0.41735179     0.34900
C1495       C  0.31599120  0.84646695  0.38720541     0.20500
C1496       C  0.30763225  0.85012797  0.41493006    -0.39400
C1497       C  0.31104356  0.87705839  0.42568456     0.19400
C1498       C  0.32203529  0.89887980  0.41020603     0.22100
C1499       C  0.33022089  0.89524369  0.38220616    -0.39900
C1500       C  0.32667062  0.86814217  0.37129626     0.20900
N1501       N  0.31510483  0.82267424  0.37246989    -0.33200
C1502       C  0.32501908  0.82907468  0.34679576    -0.10800
C1503       C  0.33247509  0.85728626  0.34515723    -0.29600
N1504       N  0.32451584  0.92204429  0.42609076    -0.46200
C1505       C  0.31515186  0.91455531  0.45176086    -0.05400
C1506       C  0.30639080  0.88679356  0.45214064    -0.22800
H1507       H  0.29945093  0.83311058  0.42737618     0.19000
H1508       H  0.33904945  0.91208969  0.36998905     0.17800
H1509       H  0.34110547  0.86825446  0.32737372     0.14100
H1510       H  0.29870974  0.87494406  0.46980780     0.13900
H1511       H  0.30792076  0.80326184  0.37941405     0.32100
H1512       H  0.33293683  0.94128651  0.42016805     0.34900
C1513       C  0.17126997  0.58001318  0.23084473     0.20500
C1514       C  0.17404007  0.60806100  0.23937574    -0.39400
C1515       C  0.20113897  0.61937764  0.23753824     0.19400
C1516       C  0.22362377  0.60380119  0.22810763     0.22100
C1517       C  0.22084697  0.57598942  0.21946500    -0.39900
C1518       C  0.19391229  0.56482482  0.22118406     0.20900
N1519       N  0.14815144  0.56389489  0.23156441    -0.33200
C1520       C  0.15640585  0.53834339  0.22236461    -0.10800
C1521       C  0.18472836  0.53828776  0.21557937    -0.29600
N1522       N  0.24725331  0.61880907  0.22901577    -0.46200
C1523       C  0.24001395  0.64429344  0.23902115    -0.05400
C1524       C  0.21132337  0.64556655  0.24444833    -0.22800
H1525       H  0.15652942  0.62003471  0.24721516     0.19000
H1526       H  0.23849358  0.56377123  0.21231330     0.17800
H1527       H  0.19720562  0.52081049  0.20841246     0.14100
H1528       H  0.19963595  0.66306689  0.25276541     0.13900
H1529       H  0.12831932  0.56964685  0.23861035     0.32100
H1530       H  0.26718197  0.61205959  0.22321048     0.34900
C1531       C  0.19141912  0.41217873  0.21967602     0.20500
C1532       C  0.21916413  0.40326977  0.21918500    -0.39400
C1533       C  0.22370010  0.37586069  0.22791452     0.19400
C1534       C  0.20223167  0.35828801  0.23605289     0.22100
C1535       C  0.17422752  0.36723423  0.23643257    -0.39900
C1536       C  0.16966954  0.39502429  0.22800443     0.20900
N1537       N  0.18232874  0.43801479  0.21443420    -0.33200
C1538       C  0.15458717  0.43776941  0.21972324    -0.10800
C1539       C  0.14568198  0.41118298  0.22792299    -0.29600
N1540       N  0.21238505  0.33303848  0.24314939    -0.46200
C1541       C  0.24045674  0.33491926  0.23966901    -0.05400
C1542       C  0.24821288  0.36134294  0.23032627    -0.22800
H1543       H  0.23610423  0.41697826  0.21314102     0.19000
H1544       H  0.15739508  0.35380353  0.24331297     0.17800
H1545       H  0.12497722  0.40501959  0.23457579     0.14100
H1546       H  0.26900345  0.36878114  0.22545594     0.13900
H1547       H  0.19462689  0.45516519  0.20883699     0.32100
H1548       H  0.20099924  0.31567598  0.24986655     0.34900
C1549       C  0.32926837  0.61953957  0.37829033     0.20500
C1550       C  0.32505660  0.61060570  0.40595751    -0.39400
C1551       C  0.33041802  0.58216278  0.41094940     0.19400
C1552       C  0.33926783  0.56437163  0.38987456     0.22100
C1553       C  0.34348508  0.57322851  0.36246682    -0.39900
C1554       C  0.33803407  0.60135420  0.35752803     0.20900
N1555       N  0.32554078  0.64532625  0.36780740    -0.33200
C1556       C  0.33186430  0.64312592  0.34026402    -0.10800
C1557       C  0.33966243  0.61605282  0.33313718    -0.29600
N1558       N  0.34183778  0.53828825  0.39924107    -0.46200
C1559       C  0.33450286  0.53907038  0.42651065    -0.05400
C1560       C  0.32740356  0.56616027  0.43483172    -0.22800
H1561       H  0.31784188  0.62460805  0.42221027     0.19000
H1562       H  0.35009793  0.55909151  0.34605947     0.17800
H1563       H  0.34583527  0.60821185  0.31281625     0.14100
H1564       H  0.32000898  0.57294452  0.45510809     0.13900
H1565       H  0.31898146  0.66316085  0.37858699     0.32100
H1566       H  0.34757575  0.52079689  0.38745129     0.34900
C1567       C  0.32971571  0.37395392  0.35745055     0.20500
C1568       C  0.32967971  0.40295165  0.35995732    -0.39400
C1569       C  0.32987181  0.41325613  0.38716177     0.19400
C1570       C  0.32994950  0.39625934  0.41052062     0.22100
C1571       C  0.32992022  0.36686779  0.40800749    -0.39900
C1572       C  0.32983594  0.35638172  0.38041161     0.20900
N1573       N  0.32963540  0.35944238  0.33357444    -0.33200
C1574       C  0.32966013  0.33219812  0.34094908    -0.10800
C1575       C  0.32982292  0.32930272  0.37008043    -0.29600
N1576       N  0.33019615  0.41193547  0.43404923    -0.46200
C1577       C  0.33041518  0.43887533  0.42506531    -0.05400
C1578       C  0.33019281  0.44029140  0.39606244    -0.22800
H1579       H  0.32960978  0.41658075  0.34192823     0.19000
H1580       H  0.33003771  0.35326272  0.42604384     0.17800
H1581       H  0.32987570  0.31009686  0.38199422     0.14100
H1582       H  0.33021748  0.45880221  0.38307335     0.13900
H1583       H  0.32950142  0.36769758  0.31338192     0.32100
H1584       H  0.33033166  0.40485796  0.45467303     0.34900
C1585       C  0.19191646  0.24487171  0.35588453     0.20500
C1586       C  0.16300425  0.24512849  0.35892686    -0.39400
C1587       C  0.15329040  0.24908426  0.38609370     0.19400
C1588       C  0.17075439  0.25242411  0.40886558     0.22100
C1589       C  0.19997487  0.25216073  0.40578683    -0.39900
C1590       C  0.20983756  0.24823441  0.37832218     0.20900
N1591       N  0.20606215  0.24196423  0.33195862    -0.33200
C1592       C  0.23333179  0.24350419  0.33896342    -0.10800
C1593       C  0.23663964  0.24730287  0.36772909    -0.29600
N1594       N  0.15569713  0.25575658  0.43252322    -0.46200
C1595       C  0.12863027  0.25456796  0.42425425    -0.05400
C1596       C  0.12652833  0.25047991  0.39553802    -0.22800
H1597       H  0.14903623  0.24260445  0.34134608     0.19000
H1598       H  0.21393079  0.25490607  0.42332804     0.17800
H1599       H  0.25596265  0.24952649  0.37919847     0.14100
H1600       H  0.10775267  0.24863882  0.38310355     0.13900
H1601       H  0.19760417  0.23933798  0.31201910     0.32100
H1602       H  0.16325648  0.25869386  0.45276329     0.34900
C1603       C  0.94842377  0.24797231  0.37877526     0.20500
C1604       C  0.95679471  0.25093998  0.40683780    -0.39400
C1605       C  0.98571807  0.25385749  0.41114056     0.19400
C1606       C  0.00436198  0.25391037  0.38902085     0.22100
C1607       C  0.99610514  0.25091691  0.36129041    -0.39900
C1608       C  0.96756990  0.24784797  0.35709570     0.20900
N1609       N  0.92232730  0.24542448  0.36869470    -0.33200
C1610       C  0.92531624  0.24371926  0.34052121    -0.10800
C1611       C  0.95321229  0.24497208  0.33264617    -0.29600
N1612       N  0.03050409  0.25636391  0.39803744    -0.46200
C1613       C  0.02906018  0.25769640  0.42623040    -0.05400
C1614       C  0.00136258  0.25635421  0.43540683    -0.22800
H1615       H  0.94198798  0.25092743  0.42393072     0.19000
H1616       H  0.01091833  0.25086293  0.34418384     0.17800
H1617       H  0.96182114  0.24447726  0.31172550     0.14100
H1618       H  0.99382255  0.25649806  0.45672169     0.13900
H1619       H  0.90374810  0.24527098  0.38014217     0.32100
H1620       H  0.04840301  0.25652041  0.38552492     0.34900
C1621       C  0.17073900  0.07711916  0.24186365     0.20500
C1622       C  0.19904926  0.08083343  0.24886587    -0.39400
C1623       C  0.20950419  0.10819629  0.24557385     0.19400
C1624       C  0.19296816  0.12994747  0.23609716     0.22100
C1625       C  0.16507142  0.12615707  0.22878469    -0.39900
C1626       C  0.15474826  0.09910138  0.23205472     0.20900
N1627       N  0.15496721  0.05386198  0.24462989    -0.33200
C1628       C  0.12890562  0.06159761  0.23660846    -0.10800
C1629       C  0.12821813  0.08948612  0.22844463    -0.29600
N1630       N  0.20718811  0.15404569  0.23549865    -0.46200
C1631       C  0.23316593  0.14784699  0.24452176    -0.05400
C1632       C  0.23554127  0.11939968  0.25094502    -0.22800
H1633       H  0.21176445  0.06394023  0.25682814     0.19000
H1634       H  0.15210696  0.14323750  0.22164758     0.17800
H1635       H  0.11027961  0.10155494  0.22186998     0.14100
H1636       H  0.25373039  0.10851583  0.25873948     0.13900
H1637       H  0.16122950  0.03445500  0.25237341     0.32100
H1638       H  0.19965603  0.17354397  0.22922704     0.34900
C1639       C  0.98672723  0.07754265  0.24236457     0.20500
C1640       C  0.95786550  0.08076560  0.24719301    -0.39400
C1641       C  0.94781174  0.10848700  0.24627848     0.19400
C1642       C  0.96523697  0.13096480  0.24093354     0.22100
C1643       C  0.99364880  0.12770263  0.23563300    -0.39900
C1644       C  0.00354719  0.10033720  0.23656812     0.20900
N1645       N  0.00218565  0.05392300  0.24362284    -0.33200
C1646       C  0.02884156  0.06227333  0.23859527    -0.10800
C1647       C  0.03022687  0.09092938  0.23390217    -0.29600
N1648       N  0.95123057  0.15515118  0.24183877    -0.46200
C1649       C  0.92446287  0.14836029  0.24765900    -0.05400
C1650       C  0.92139005  0.11938674  0.25053694    -0.22800
H1651       H  0.94441494  0.06320387  0.25187211     0.19000
H1652       H  0.00724703  0.14532920  0.23163082     0.17800
H1653       H  0.04862181  0.10351376  0.23005051     0.14100
H1654       H  0.90246717  0.10793074  0.25518201     0.13900
H1655       H  0.99523802  0.03375945  0.24825799     0.32100
H1656       H  0.95943845  0.17511125  0.23851470     0.34900
C1657       C  0.98435316  0.71697986  0.41219951     0.20500
C1658       C  0.95595643  0.72417369  0.40929733    -0.39400
C1659       C  0.94507470  0.72221897  0.38199651     0.19400
C1660       C  0.96133676  0.71375547  0.35958782     0.22100
C1661       C  0.98919227  0.70585779  0.36260975    -0.39900
C1662       C  0.99993878  0.70781196  0.38960556     0.20900
N1663       N  0.00073880  0.71973905  0.43500169    -0.33200
C1664       C  0.02679314  0.71240508  0.42640637    -0.10800
C1665       C  0.02681008  0.70445055  0.39842790    -0.29600
N1666       N  0.94710109  0.71528445  0.33561093    -0.46200
C1667       C  0.92135983  0.72464461  0.34248741    -0.05400
C1668       C  0.91910508  0.72902602  0.37132282    -0.22800
H1669       H  0.94361993  0.73179264  0.42666757     0.19000
H1670       H  0.00195669  0.69973381  0.34495078     0.17800
H1671       H  0.04459481  0.69873028  0.38565721     0.14100
H1672       H  0.90121195  0.73683682  0.38274403     0.13900
H1673       H  0.99489634  0.72740088  0.45459583     0.32100
H1674       H  0.95457818  0.71041475  0.31567258     0.34900
C1675       C  0.19423268  0.71990664  0.35774177     0.20500
C1676       C  0.16602549  0.71275089  0.35998521    -0.39400
C1677       C  0.15448643  0.71505551  0.38669980     0.19400
C1678       C  0.16978833  0.72366860  0.40965658     0.22100
C1679       C  0.19833363  0.73034346  0.40749625    -0.39900
C1680       C  0.20996033  0.72815753  0.38054874     0.20900
N1681       N  0.20944771  0.72064655  0.33427578    -0.33200
C1682       C  0.23522139  0.72935130  0.34189201    -0.10800
C1683       C  0.23650636  0.73408789  0.37071755    -0.29600
N1684       N  0.15328964  0.72549369  0.43241852    -0.46200
C1685       C  0.12741951  0.71805443  0.42361462    -0.05400
C1686       C  0.12746829  0.71128329  0.39530201    -0.22800
H1687       H  0.15374492  0.70656554  0.34204725     0.19000
H1688       H  0.21037494  0.73737953  0.42527374     0.17800
H1689       H  0.25419362  0.74144440  0.38269114     0.14100
H1690       H  0.10986022  0.70521867  0.38249776     0.13900
H1691       H  0.20259882  0.71564623  0.31416901     0.32100
H1692       H  0.15908496  0.73199077  0.45242365     0.34900
C1693       C  0.94857374  0.86552110  0.25769873     0.20500
C1694       C  0.95725083  0.89358024  0.25570731    -0.39400
C1695       C  0.98583057  0.89840657  0.26046687     0.19400
C1696       C  0.00396110  0.87687584  0.26706138     0.22100
C1697       C  0.99528066  0.84910878  0.26940753    -0.39900
C1698       C  0.96706407  0.84428499  0.26419439     0.20900
N1699       N  0.92290068  0.85501636  0.25315372    -0.33200
C1700       C  0.92542853  0.82694755  0.25654784    -0.10800
C1701       C  0.95264761  0.81956913  0.26342687    -0.29600
N1702       N  0.03018933  0.88616164  0.26876704    -0.46200
C1703       C  0.02917728  0.91381727  0.26294604    -0.05400
C1704       C  0.00176446  0.92245055  0.25794239    -0.22800
H1705       H  0.94304598  0.91020872  0.25003038     0.19000
H1706       H  0.00969953  0.83231086  0.27398163     0.17800
H1707       H  0.96082637  0.79883373  0.26725729     0.14100
H1708       H  0.99470564  0.94304596  0.25186817     0.13900
H1709       H  0.90493773  0.86614556  0.24778965     0.32100
H1710       H  0.04791645  0.87404620  0.27262508     0.34900
C1711       C  0.21158687  0.86760188  0.25439952     0.20500
C1712       C  0.20242786  0.89554673  0.25218904    -0.39400
C1713       C  0.17339425  0.89961854  0.25492464     0.19400
C1714       C  0.15538119  0.87746913  0.25960976     0.22100
C1715       C  0.16445227  0.84992349  0.26186840    -0.39900
C1716       C  0.19304548  0.84590419  0.25900923     0.20900
N1717       N  0.23780799  0.85759649  0.25212147    -0.33200
C1718       C  0.23541478  0.82943430  0.25516978    -0.10800
C1719       C  0.20786332  0.82155129  0.25953373    -0.29600
N1720       N  0.12898559  0.88612779  0.26108207    -0.46200
C1721       C  0.12965009  0.91409346  0.25727469    -0.05400
C1722       C  0.15705086  0.92351506  0.25335962    -0.22800
H1723       H  0.21669130  0.91266890  0.24835867     0.19000
H1724       H  0.15014768  0.83274331  0.26530085     0.17800
H1725       H  0.19969644  0.80066442  0.26252034     0.14100
H1726       H  0.16396504  0.94472030  0.24961819     0.13900
H1727       H  0.25600165  0.86905759  0.24843166     0.32100
H1728       H  0.11144910  0.87352162  0.26425521     0.34900
C1729       C  0.15535174  0.74453614  0.60913812     0.20500
C1730       C  0.16358590  0.74804262  0.63687347    -0.39400
C1731       C  0.19176590  0.74343019  0.64222389     0.19400
C1732       C  0.21061833  0.73617389  0.62152042     0.22100
C1733       C  0.20228677  0.73263527  0.59347761    -0.39900
C1734       C  0.17371196  0.73705049  0.58807221     0.20900
N1735       N  0.12939207  0.74664985  0.59941208    -0.33200
C1736       C  0.13061500  0.74032249  0.57186422    -0.10800
C1737       C  0.15806811  0.73433771  0.56376888    -0.29600
N1738       N  0.23633125  0.73310057  0.63245211    -0.46200
C1739       C  0.23343020  0.73826209  0.66022796    -0.05400
C1740       C  0.20593482  0.74469635  0.66700800    -0.22800
H1741       H  0.14894072  0.75355120  0.65322700     0.19000
H1742       H  0.21683076  0.72658474  0.57724219     0.17800
H1743       H  0.16536666  0.72793735  0.54333794     0.14100
H1744       H  0.19746560  0.74980020  0.68736790     0.13900
H1745       H  0.11165780  0.75145853  0.61122025     0.32100
H1746       H  0.25459638  0.72771421  0.62178560     0.34900
C1747       C  0.00685530  0.73622527  0.61225188     0.20500
C1748       C  0.99888404  0.73577112  0.64031001    -0.39400
C1749       C  0.97020894  0.73609230  0.64521383     0.19400
C1750       C  0.95081718  0.73682589  0.62382673     0.22100
C1751       C  0.95886726  0.73715656  0.59553736    -0.39900
C1752       C  0.98778595  0.73677019  0.59056465     0.20900
N1753       N  0.03292825  0.73627982  0.60248914    -0.33200
C1754       C  0.03082951  0.73675892  0.57430983    -0.10800
C1755       C  0.00293452  0.73699903  0.56588406    -0.29600
N1756       N  0.92477552  0.73725776  0.63432373    -0.46200
C1757       C  0.92785591  0.73677386  0.66250254    -0.05400
C1758       C  0.95589272  0.73602423  0.67002066    -0.22800
H1759       H  0.01396938  0.73531032  0.65711648     0.19000
H1760       H  0.94379497  0.73774311  0.57873724     0.17800
H1761       H  0.99490978  0.73745179  0.54477558     0.14100
H1762       H  0.96463448  0.73562006  0.69085450     0.13900
H1763       H  0.05115097  0.73592970  0.61445919     0.32100
H1764       H  0.90613143  0.73793435  0.62306127     0.34900
C1765       C  0.17368906  0.90187224  0.75670223     0.20500
C1766       C  0.20279283  0.89877129  0.75332590    -0.39400
C1767       C  0.21291604  0.87111456  0.75524551     0.19400
C1768       C  0.19532215  0.84867593  0.76023627     0.22100
C1769       C  0.16674030  0.85184036  0.76410530    -0.39900
C1770       C  0.15676896  0.87905324  0.76210515     0.20900
N1771       N  0.15803464  0.92521311  0.75375893    -0.33200
C1772       C  0.13119919  0.91653614  0.75714063    -0.10800
C1773       C  0.12988274  0.88808251  0.76267629    -0.29600
N1774       N  0.20926038  0.82449820  0.76006685    -0.46200
C1775       C  0.23615358  0.83119668  0.75502075    -0.05400
C1776       C  0.23944529  0.86013910  0.75196727    -0.22800
H1777       H  0.21633278  0.91629071  0.74873341     0.19000
H1778       H  0.15304458  0.83417727  0.76757351     0.17800
H1779       H  0.11143038  0.87530323  0.76544626     0.14100
H1780       H  0.25850024  0.87146870  0.74754261     0.13900
H1781       H  0.16497657  0.94528302  0.74872787     0.32100
H1782       H  0.20086449  0.80456798  0.76309778     0.34900
C1783       C  0.98920586  0.90032897  0.74362474     0.20500
C1784       C  0.96007049  0.89791015  0.74682913    -0.39400
C1785       C  0.94928948  0.87053839  0.74543602     0.19400
C1786       C  0.96632094  0.84755894  0.74106760     0.22100
C1787       C  0.99515986  0.84999478  0.73735136    -0.39900
C1788       C  0.00584388  0.87713453  0.73890543     0.20900
N1789       N  0.00501293  0.92357384  0.74601229    -0.33200
C1790       C  0.03179358  0.91479783  0.74301789    -0.10800
C1791       C  0.03298713  0.88605471  0.73829331    -0.29600
N1792       N  0.95152993  0.82381183  0.74164247    -0.46200
C1793       C  0.92472056  0.83143234  0.74632215    -0.05400
C1794       C  0.92237638  0.86049903  0.74869894    -0.22800
H1795       H  0.94691357  0.91585179  0.75089115     0.19000
H1796       H  0.00844591  0.83193850  0.73428987     0.17800
H1797       H  0.05142167  0.87317645  0.73584623     0.14100
H1798       H  0.90366969  0.87255041  0.75269599     0.13900
H1799       H  0.99814135  0.94383670  0.75036626     0.32100
H1800       H  0.95929448  0.80355651  0.73907834     0.34900
C1801       C  0.17276992  0.24414238  0.58912016     0.20500
C1802       C  0.20207496  0.24413858  0.59173186    -0.39400
C1803       C  0.21237767  0.24000071  0.61901518     0.19400
C1804       C  0.19475660  0.23596040  0.64162383     0.22100
C1805       C  0.16582031  0.23542046  0.63893484    -0.39900
C1806       C  0.15568046  0.23986025  0.61205377     0.20900
N1807       N  0.15727446  0.24899158  0.56604321    -0.33200
C1808       C  0.13033534  0.24789511  0.57490443    -0.10800
C1809       C  0.12875663  0.24218362  0.60334609    -0.29600
N1810       N  0.20909215  0.23446642  0.66552585    -0.46200
C1811       C  0.23621103  0.23775343  0.65844667    -0.05400
C1812       C  0.23924676  0.24089764  0.62952851    -0.22800
H1813       H  0.21574379  0.24796732  0.57413020     0.19000
H1814       H  0.15210172  0.23276854  0.65672773     0.17800
H1815       H  0.11021384  0.24044551  0.61619477     0.14100
H1816       H  0.25833446  0.24458155  0.61798673     0.13900
H1817       H  0.16447727  0.25324936  0.54589403     0.32100
H1818       H  0.20077575  0.23214120  0.68557972     0.34900
C1819       C  0.98833491  0.25502491  0.59053654     0.20500
C1820       C  0.95916410  0.25205613  0.59264648    -0.39400
C1821       C  0.94853035  0.24957734  0.61998456     0.19400
C1822       C  0.96573310  0.25000970  0.64319702     0.22100
C1823       C  0.99460013  0.25320855  0.64113975    -0.39900
C1824       C  0.00507434  0.25575307  0.61406714     0.20900
N1825       N  0.00406085  0.25642878  0.56714198    -0.33200
C1826       C  0.03084023  0.25795737  0.57625421    -0.10800
C1827       C  0.03209045  0.25786139  0.60531487    -0.29600
N1828       N  0.95094751  0.24721683  0.66674378    -0.46200
C1829       C  0.92394774  0.24511820  0.65876617    -0.05400
C1830       C  0.92150700  0.24643829  0.62969425    -0.22800
H1831       H  0.94582281  0.25138368  0.57444260     0.19000
H1832       H  0.00800101  0.25341290  0.65932858     0.17800
H1833       H  0.05051282  0.25824079  0.61838874     0.14100
H1834       H  0.90258486  0.24549810  0.61741662     0.13900
H1835       H  0.99713808  0.25561644  0.54648351     0.32100
H1836       H  0.95881658  0.24705205  0.68708870     0.34900
C1837       C  0.19411377  0.13389471  0.74175255     0.20500
C1838       C  0.16584507  0.13066539  0.73588141    -0.39400
C1839       C  0.15566702  0.10347551  0.73797240     0.19400
C1840       C  0.17211305  0.08089484  0.74541802     0.22100
C1841       C  0.20077849  0.08409372  0.75095752    -0.39900
C1842       C  0.21110534  0.11156738  0.74880479     0.20900
N1843       N  0.20843219  0.15787120  0.74152188    -0.33200
C1844       C  0.23491696  0.15094549  0.74824509    -0.10800
C1845       C  0.23753599  0.12225169  0.75296074    -0.29600
N1846       N  0.15647509  0.05750381  0.74748700    -0.46200
C1847       C  0.13006047  0.06576871  0.74141929    -0.05400
C1848       C  0.12899250  0.09412430  0.73513188    -0.22800
H1849       H  0.15258379  0.14817623  0.73053469     0.19000
H1850       H  0.21389817  0.06670047  0.75694945     0.17800
H1851       H  0.25617599  0.11085693  0.75869029     0.14100
H1852       H  0.11079416  0.10657771  0.73017403     0.13900
H1853       H  0.20066374  0.17771929  0.73679726     0.32100
H1854       H  0.16311831  0.03759554  0.75343864     0.34900
C1855       C  0.96393007  0.13169217  0.74085828     0.20500
C1856       C  0.99278226  0.12963255  0.73780748    -0.39400
C1857       C  0.00363341  0.10266416  0.73929772     0.19400
C1858       C  0.98725029  0.07921318  0.74354270     0.22100
C1859       C  0.95803097  0.08127592  0.74630741    -0.39900
C1860       C  0.94700411  0.10854994  0.74476702     0.20900
N1861       N  0.94900339  0.15526842  0.74097903    -0.33200
C1862       C  0.92217886  0.14743095  0.74493336    -0.10800
C1863       C  0.91992758  0.11836684  0.74724546    -0.29600
N1864       N  0.00333320  0.05607672  0.74511725    -0.46200
C1865       C  0.02994659  0.06530958  0.74184027    -0.05400
C1866       C  0.03074910  0.09414685  0.73805126    -0.22800
H1867       H  0.00592071  0.14782151  0.73491746     0.19000
H1868       H  0.94496316  0.06315816  0.74979072     0.17800
H1869       H  0.90119369  0.10620422  0.75070536     0.14100
H1870       H  0.04892958  0.10732273  0.73530559     0.13900
H1871       H  0.95672587  0.17556403  0.73863650     0.32100
H1872       H  0.99673512  0.03556619  0.74858881     0.34900
C1873       C  0.46722952  0.06489885  0.27578507     0.20500
C1874       C  0.43957564  0.07373441  0.27894463    -0.39400
C1875       C  0.43416878  0.10118697  0.27075513     0.19400
C1876       C  0.45482230  0.11876571  0.26071174     0.22100
C1877       C  0.48270600  0.10999252  0.25793906    -0.39900
C1878       C  0.48809618  0.08222585  0.26574737     0.20900
N1879       N  0.47695452  0.03908201  0.27993756    -0.33200
C1880       C  0.50421233  0.03961802  0.27238459    -0.10800
C1881       C  0.51214508  0.06629653  0.26364722    -0.29600
N1882       N  0.44398937  0.14372336  0.25381352    -0.46200
C1883       C  0.41627388  0.14172505  0.25924707    -0.05400
C1884       C  0.40938028  0.11552619  0.26985271    -0.33200
H1885       H  0.42326906  0.05990326  0.28631385     0.19000
H1886       H  0.49877958  0.12348617  0.24953886     0.17800
H1887       H  0.53220923  0.07273223  0.25547186     0.14100
H1888       H  0.38897537  0.10800920  0.27606199     0.13900
H1889       H  0.46536006  0.02182464  0.28660849     0.32100
H1890       H  0.45468146  0.16089882  0.24563397     0.34900
C1891       C  0.46738951  0.91363470  0.27488274     0.20500
C1892       C  0.43972699  0.90457655  0.27636149    -0.39400
C1893       C  0.43552050  0.87629847  0.27073395     0.19400
C1894       C  0.45717646  0.85815525  0.26449620     0.22100
C1895       C  0.48509299  0.86719624  0.26352001    -0.39900
C1896       C  0.48933846  0.89578442  0.26881558     0.20900
N1897       N  0.47632816  0.93994283  0.27738334    -0.33200
C1898       C  0.50420662  0.93917484  0.27277729    -0.10800
C1899       C  0.51327519  0.91192382  0.26756702    -0.29600
N1900       N  0.44723217  0.83242955  0.25899357    -0.46200
C1901       C  0.41911277  0.83459225  0.26156803    -0.05400
C1902       C  0.41112245  0.86156970  0.26897626    -0.22800
H1903       H  0.42260989  0.91873833  0.28063623     0.19000
H1904       H  0.50207325  0.85325027  0.25818350     0.17800
H1905       H  0.53419097  0.90507802  0.26242635     0.14100
H1906       H  0.39018681  0.86942450  0.27235580     0.13900
H1907       H  0.46394123  0.95752340  0.28121468     0.32100
H1908       H  0.45874172  0.81470877  0.25348763     0.34900
C1909       C  0.32522425  0.10307744  0.14078658     0.20500
C1910       C  0.32489063  0.07408583  0.13845132    -0.39400
C1911       C  0.32828976  0.06363704  0.11152954     0.19400
C1912       C  0.33148514  0.08051959  0.08829011     0.22100
C1913       C  0.33161794  0.10987932  0.09060921    -0.39900
C1914       C  0.32844941  0.12049378  0.11791761     0.20900
N1915       N  0.32361954  0.11770861  0.16450136    -0.33200
C1916       C  0.32599083  0.14482030  0.15706664    -0.10800
C1917       C  0.32885491  0.14756855  0.12809364    -0.29600
N1918       N  0.33456140  0.06477204  0.06506269    -0.46200
C1919       C  0.33336020  0.03790319  0.07410431    -0.05400
C1920       C  0.32953572  0.03656488  0.10285962    -0.22800
H1921       H  0.32266727  0.06057898  0.15644092     0.19000
H1922       H  0.33441007  0.12335809  0.07268868     0.17800
H1923       H  0.33160647  0.16662816  0.11625583     0.14100
H1924       H  0.32790234  0.01810620  0.11582291     0.13900
H1925       H  0.32157759  0.10959831  0.18465476     0.32100
H1926       H  0.33739791  0.07176262  0.04459971     0.34900
C1927       C  0.33464358  0.85678736  0.12194051     0.20500
C1928       C  0.33693020  0.86500464  0.09367336    -0.39400
C1929       C  0.33647230  0.89410294  0.08879182     0.19400
C1930       C  0.33401251  0.91298638  0.11058263     0.22100
C1931       C  0.33179845  0.90486502  0.13844579    -0.39900
C1932       C  0.33217700  0.87621129  0.14323360     0.20900
N1933       N  0.33452515  0.83070262  0.13258731    -0.33200
C1934       C  0.33198774  0.83397548  0.16072808    -0.10800
C1935       C  0.33044417  0.86205550  0.16798858    -0.29600
N1936       N  0.33400916  0.93918278  0.10122790    -0.46200
C1937       C  0.33644181  0.93766824  0.07311873    -0.05400
C1938       C  0.33805907  0.90974704  0.06432325    -0.22800
H1939       H  0.33887697  0.84997047  0.07686774     0.19000
H1940       H  0.32987957  0.91989704  0.15526589     0.17800
H1941       H  0.32841194  0.87096910  0.18869037     0.14100
H1942       H  0.34008211  0.90202404  0.04316030     0.13900
H1943       H  0.33617231  0.81195346  0.12149502     0.32100
H1944       H  0.33237185  0.95717646  0.11353104     0.34900
C1945       C  0.66761671  0.08199539  0.74209933     0.20500
C1946       C  0.67068005  0.11062759  0.74833319    -0.39400
C1947       C  0.69764096  0.12170995  0.74418228     0.19400
C1948       C  0.71963559  0.10534522  0.73487102     0.22100
C1949       C  0.71660680  0.07704992  0.72872538    -0.39900
C1950       C  0.68992377  0.06618073  0.73265955     0.20900
N1951       N  0.64447672  0.06599216  0.74431282    -0.33200
C1952       C  0.65261124  0.04001053  0.73619589    -0.10800
C1953       C  0.68070444  0.03952780  0.72883228    -0.29600
N1954       N  0.74322851  0.12015302  0.73322952    -0.46200
C1955       C  0.73650333  0.14633018  0.74143468    -0.05400
C1956       C  0.70818136  0.14831268  0.74832585    -0.22800
H1957       H  0.65350770  0.12324632  0.75590759     0.19000
H1958       H  0.73388491  0.06432443  0.72154970     0.17800
H1959       H  0.69293905  0.02181508  0.72182497     0.14100
H1960       H  0.69705673  0.16649660  0.75591883     0.13900
H1961       H  0.62472140  0.07218488  0.75119438     0.32100
H1962       H  0.76282901  0.11278250  0.72705457     0.34900
C1963       C  0.68983935  0.91501031  0.73193343     0.20500
C1964       C  0.71775752  0.90662250  0.73224620    -0.39400
C1965       C  0.72228790  0.87804528  0.73563415     0.19400
C1966       C  0.70072325  0.85898608  0.73828116     0.22100
C1967       C  0.67251225  0.86747642  0.73795731    -0.39900
C1968       C  0.66790109  0.89639302  0.73473293     0.20900
N1969       N  0.68052576  0.94123167  0.73013994    -0.33200
C1970       C  0.65235400  0.93981765  0.73202367    -0.10800
C1971       C  0.64350117  0.91208448  0.73471712    -0.29600
N1972       N  0.71101664  0.83291255  0.74122996    -0.46200
C1973       C  0.73925966  0.83574552  0.74054101    -0.05400
C1974       C  0.74691641  0.86359590  0.73714996    -0.22800
H1975       H  0.73477884  0.92139819  0.73038955     0.19000
H1976       H  0.65551075  0.85277708  0.74036295     0.17800
H1977       H  0.62234597  0.90457121  0.73726229     0.14100
H1978       H  0.76780154  0.87215368  0.73588647     0.13900
H1979       H  0.69285529  0.95918109  0.72847586     0.32100
H1980       H  0.69961175  0.81446087  0.74364087     0.34900
C1981       C  0.81890730  0.06547181  0.89054488     0.20500
C1982       C  0.81697307  0.07339969  0.86256680    -0.39400
C1983       C  0.82007628  0.10184238  0.85727107     0.19400
C1984       C  0.82451896  0.12124059  0.87825081     0.22100
C1985       C  0.82627544  0.11325535  0.90661960    -0.39900
C1986       C  0.82340504  0.08437365  0.91197337     0.20900
N1987       N  0.81760131  0.03940381  0.90026365    -0.33200
C1988       C  0.82137560  0.04100817  0.92822490    -0.10800
C1989       C  0.82502015  0.06889532  0.93655864    -0.29600
N1990       N  0.82719323  0.14702109  0.86720116    -0.46200
C1991       C  0.82459502  0.14364151  0.83909052    -0.05400
C1992       C  0.82009014  0.11574800  0.83224765    -0.22800
H1993       H  0.81376436  0.05832575  0.84599219     0.19000
H1994       H  0.83003529  0.12826701  0.92312524     0.17800
H1995       H  0.82885875  0.07666609  0.95744257     0.14100
H1996       H  0.81730583  0.10679226  0.81165986     0.13900
H1997       H  0.81475297  0.02138164  0.88823849     0.32100
H1998       H  0.83080027  0.16564738  0.87802321     0.34900
C1999       C  0.81618295  0.91585311  0.89007555     0.20500
C2000       C  0.81353430  0.90755308  0.86217563    -0.39400
C2001       C  0.81747146  0.87910635  0.85695300     0.19400
C2002       C  0.82324359  0.86013656  0.87795021     0.22100
C2003       C  0.82572119  0.86848557  0.90610746    -0.39900
C2004       C  0.82209539  0.89724644  0.91135791     0.20900
N2005       N  0.81466436  0.94198257  0.89984723    -0.33200
C2006       C  0.81979491  0.94051288  0.92762383    -0.10800
C2007       C  0.82442767  0.91281691  0.93577326    -0.29600
N2008       N  0.82657647  0.83432251  0.86715929    -0.46200
C2009       C  0.82313666  0.83714259  0.83914255    -0.05400
C2010       C  0.81740445  0.86478107  0.83207225    -0.22800
H2011       H  0.80934182  0.92234267  0.84561434     0.19000
H2012       H  0.83066996  0.85381427  0.92254993     0.17800
H2013       H  0.82961087  0.90525665  0.95641307     0.14100
H2014       H  0.81386108  0.87329221  0.81144052     0.13900
H2015       H  0.81097635  0.95993645  0.88800953     0.32100
H2016       H  0.83128646  0.81604256  0.87808294     0.34900
C2017       C  0.34473988  0.38021664  0.07699943     0.20500
C2018       C  0.35005124  0.35293234  0.08577821    -0.39400
C2019       C  0.34576631  0.34783859  0.11410013     0.19400
C2020       C  0.33721062  0.36841554  0.13257944     0.22100
C2021       C  0.33238091  0.39611590  0.12381563    -0.39900
C2022       C  0.33636263  0.40119631  0.09511772     0.20900
N2023       N  0.34544527  0.38940360  0.05071781    -0.33200
C2024       C  0.33742616  0.41649140  0.05163149    -0.10800
C2025       C  0.33175509  0.42487393  0.07907046    -0.29600
N2026       N  0.33321539  0.35747317  0.15817650    -0.46200
C2027       C  0.33900852  0.32978860  0.15557421    -0.05400
C2028       C  0.34706405  0.32313051  0.12845134    -0.22800
H2029       H  0.35605598  0.33655931  0.07133563     0.19000
H2030       H  0.32513966  0.41217986  0.13802455     0.17800
H2031       H  0.32430221  0.44504653  0.08611793     0.14100
H2032       H  0.35240975  0.30275195  0.12015485     0.13900
H2033       H  0.35052610  0.37759999  0.03304067     0.32100
H2034       H  0.32622315  0.36795152  0.17602140     0.34900
C2035       C  0.33487382  0.36969736  0.86884504     0.20500
C2036       C  0.33220801  0.39756698  0.87809260    -0.39400
C2037       C  0.33486988  0.40170133  0.90711541     0.19400
C2038       C  0.34000272  0.37969071  0.92513083     0.22100
C2039       C  0.34300081  0.35216760  0.91594269    -0.39900
C2040       C  0.34009305  0.34807565  0.88728221     0.20900
N2041       N  0.33214840  0.35970512  0.84263506    -0.33200
C2042       C  0.33550257  0.33159129  0.84482691    -0.10800
C2043       C  0.34057285  0.32372759  0.87231553    -0.29600
N2044       N  0.34057591  0.38841119  0.95161638    -0.46200
C2045       C  0.33570135  0.41625126  0.95092433    -0.05400
C2046       C  0.33215528  0.42551761  0.92345726    -0.22800
H2047       H  0.32776718  0.41457762  0.86390789     0.19000
H2048       H  0.34664264  0.33502991  0.93022163     0.17800
H2049       H  0.34378510  0.30284038  0.88037211     0.14100
H2050       H  0.32756688  0.44653014  0.91650518     0.13900
H2051       H  0.32785120  0.37114528  0.82458428     0.32100
H2052       H  0.34366395  0.37591502  0.96922765     0.34900
C2053       C  0.16813270  0.23803641  0.09125687     0.20500
C2054       C  0.17114540  0.23533342  0.12038619    -0.39400
C2055       C  0.19863744  0.23795020  0.13055195     0.19400
C2056       C  0.22114399  0.24268643  0.11297231     0.22100
C2057       C  0.21814003  0.24548448  0.08421226    -0.39900
C2058       C  0.19096469  0.24304046  0.07422867     0.20900
N2059       N  0.14458020  0.23605464  0.07585292    -0.33200
C2060       C  0.15301640  0.23988542  0.04902769    -0.10800
C2061       C  0.18167924  0.24435875  0.04746026    -0.29600
N2062       N  0.24507882  0.24394235  0.12724189    -0.46200
C2063       C  0.23803442  0.24012142  0.15428818    -0.05400
C2064       C  0.20921552  0.23636972  0.15732366    -0.22800
H2065       H  0.15355915  0.23137444  0.13403374     0.19000
H2066       H  0.23576842  0.24915423  0.07051946     0.17800
H2067       H  0.19427116  0.24780088  0.02897757     0.14100
H2068       H  0.19768550  0.23271072  0.17643010     0.13900
H2069       H  0.12435292  0.23213057  0.08300891     0.32100
H2070       H  0.26502967  0.24721002  0.11901362     0.34900
C2071       C  0.22098439  0.24800771  0.88510328     0.20500
C2072       C  0.21788801  0.25063072  0.91391889    -0.39400
C2073       C  0.19069155  0.24804739  0.92394834     0.19400
C2074       C  0.16790996  0.24317582  0.90687945     0.22100
C2075       C  0.17097630  0.24092020  0.87767656    -0.39900
C2076       C  0.19851356  0.24354733  0.86747793     0.20900
N2077       N  0.24503987  0.24867513  0.87088225    -0.33200
C2078       C  0.23817823  0.24469002  0.84380457    -0.10800
C2079       C  0.20927322  0.24156535  0.84071247    -0.29600
N2080       N  0.14443699  0.24029595  0.92234797    -0.46200
C2081       C  0.15285553  0.24336215  0.94926283    -0.05400
C2082       C  0.18143173  0.24837223  0.95082887    -0.22800
H2083       H  0.23552339  0.25387989  0.92766009     0.19000
H2084       H  0.15343750  0.23689784  0.86403159     0.17800
H2085       H  0.19781876  0.23778235  0.82161236     0.14100
H2086       H  0.19403146  0.25118207  0.96938175     0.13900
H2087       H  0.26500171  0.25145320  0.87920586     0.32100
H2088       H  0.12430291  0.23601708  0.91518238     0.34900
C2089       C  0.82154691  0.57790998  0.09045074     0.20500
C2090       C  0.82251042  0.58038736  0.11976663    -0.39400
C2091       C  0.82188036  0.60792834  0.13031781     0.19400
C2092       C  0.82012991  0.63094924  0.11290978     0.22100
C2093       C  0.81855279  0.62846173  0.08392126    -0.39900
C2094       C  0.81951783  0.60123378  0.07350659     0.20900
N2095       N  0.82338829  0.55444232  0.07481573    -0.33200
C2096       C  0.82267272  0.56333143  0.04790211    -0.10800
C2097       C  0.82013369  0.59228233  0.04644602    -0.29600
N2098       N  0.82117839  0.65479690  0.12752526    -0.46200
C2099       C  0.82367574  0.64725486  0.15462008    -0.05400
C2100       C  0.82400105  0.61811199  0.15731541    -0.22800
H2101       H  0.82442837  0.56236515  0.13325825     0.19000
H2102       H  0.81753237  0.64652065  0.07036201     0.17800
H2103       H  0.81941043  0.60521570  0.02791922     0.14100
H2104       H  0.82611254  0.60608233  0.17631707     0.13900
H2105       H  0.82548992  0.53392036  0.08191605     0.32100
H2106       H  0.82055725  0.67505949  0.11943039     0.34900
C2107       C  0.82540030  0.61180719  0.86782784     0.20500
C2108       C  0.82481449  0.58337178  0.87573895    -0.39400
C2109       C  0.82661181  0.57817220  0.90467629     0.19400
C2110       C  0.82881981  0.59984097  0.92371903     0.22100
C2111       C  0.82937808  0.62792253  0.91590653    -0.39900
C2112       C  0.82754908  0.63302797  0.88736865     0.20900
N2113       N  0.82424134  0.62264686  0.84189470    -0.33200
C2114       C  0.82564966  0.65084643  0.84531186    -0.10800
C2115       C  0.82766123  0.65799005  0.87339122    -0.29600
N2116       N  0.82982075  0.59014763  0.94975044    -0.46200
C2117       C  0.82818624  0.56195446  0.94796473    -0.05400
C2118       C  0.82623540  0.55344720  0.92001126    -0.22800
H2119       H  0.82304359  0.56666396  0.86058085     0.19000
H2120       H  0.83102587  0.64465199  0.93107160     0.17800
H2121       H  0.82929576  0.67870470  0.88238330     0.14100
H2122       H  0.82431674  0.53233988  0.91208608     0.13900
H2123       H  0.82275300  0.61160763  0.82311552     0.32100
H2124       H  0.83120526  0.60232026  0.96784295     0.34900
C2125       C  0.93923054  0.75137352  0.11694959     0.20500
C2126       C  0.94183185  0.75678818  0.08851130    -0.39400
C2127       C  0.96870570  0.75441064  0.07769415     0.19400
C2128       C  0.99161179  0.74728996  0.09376736     0.22100
C2129       C  0.98907545  0.74233129  0.12266677    -0.39900
C2130       C  0.96183986  0.74460783  0.13362367     0.20900
N2131       N  0.91545822  0.75096186  0.13151854    -0.33200
C2132       C  0.92261261  0.74387534  0.15784099    -0.10800
C2133       C  0.95145798  0.73993423  0.16019841    -0.29600
N2134       N  0.01459141  0.74491945  0.07757656    -0.46200
C2135       C  0.00576016  0.75052478  0.05122253    -0.05400
C2136       C  0.97740322  0.75668051  0.05069283    -0.22800
H2137       H  0.92401161  0.76170135  0.07553636     0.19000
H2138       H  0.00672402  0.73641643  0.13544019     0.17800
H2139       H  0.96306334  0.73383406  0.17858049     0.14100
H2140       H  0.96455401  0.76128082  0.03269117     0.13900
H2141       H  0.89545199  0.75500283  0.12384622     0.32100
H2142       H  0.03465562  0.73920341  0.08387301     0.34900
C2143       C  0.96886378  0.75800695  0.92565186     0.20500
C2144       C  0.94119375  0.76179967  0.91705199    -0.39400
C2145       C  0.93599160  0.75692538  0.88874412     0.19400
C2146       C  0.95686697  0.74943505  0.87017968     0.22100
C2147       C  0.98481681  0.74614057  0.87875485    -0.39900
C2148       C  0.98998118  0.75047981  0.90737977     0.20900
N2149       N  0.97840560  0.75931855  0.95184905    -0.33200
C2150       C  0.00583598  0.75241494  0.95071473    -0.10800
C2151       C  0.01400883  0.74691505  0.92318899    -0.29600
N2152       N  0.94609132  0.74486405  0.84461192    -0.46200
C2153       C  0.91815887  0.74911689  0.84714708    -0.05400
C2154       C  0.91115826  0.75681488  0.87436136    -0.22800
H2155       H  0.92469318  0.76708497  0.93160737     0.19000
H2156       H  0.00108609  0.73967732  0.86443073     0.17800
H2157       H  0.03431678  0.74014617  0.91592607     0.14100
H2158       H  0.89057845  0.76123676  0.88263327     0.13900
H2159       H  0.96659152  0.76390054  0.96964497     0.32100
H2160       H  0.95695688  0.73864123  0.82672089     0.34900
C2161       C  0.48864050  0.08225717  0.74899232     0.20500
C2162       C  0.48580346  0.11124435  0.74512472    -0.39400
C2163       C  0.45875197  0.12195601  0.74915855     0.19400
C2164       C  0.43644943  0.10502141  0.75646056     0.22100
C2165       C  0.43933286  0.07635974  0.76072111    -0.39900
C2166       C  0.46613922  0.06576509  0.75664399     0.20900
N2167       N  0.51156536  0.06640487  0.74487042    -0.33200
C2168       C  0.50315157  0.03979222  0.74981301    -0.10800
C2169       C  0.47510511  0.03874127  0.75738589    -0.29600
N2170       N  0.41273857  0.11968186  0.75783612    -0.46200
C2171       C  0.41981093  0.14626076  0.75143176    -0.05400
C2172       C  0.44837181  0.14866520  0.74604351    -0.22800
H2173       H  0.50311209  0.12431683  0.73876211     0.19000
H2174       H  0.42179109  0.06312076  0.76606260     0.17800
H2175       H  0.46260938  0.02041605  0.76185990     0.14100
H2176       H  0.45979001  0.16723496  0.74003580     0.13900
H2177       H  0.53125331  0.07308838  0.73827470     0.32100
H2178       H  0.39288632  0.11197711  0.76262086     0.34900
C2179       C  0.48826931  0.89737761  0.74054423     0.20500
C2180       C  0.48626960  0.86804482  0.74228258    -0.39400
C2181       C  0.45892447  0.85717621  0.74314781     0.19400
C2182       C  0.43567682  0.87435707  0.74233139     0.22100
C2183       C  0.43764632  0.90334925  0.74044154    -0.39900
C2184       C  0.46467517  0.91404578  0.73956986     0.20900
N2185       N  0.51154796  0.91329906  0.74042523    -0.33200
C2186       C  0.50226081  0.94009238  0.73950113    -0.10800
C2187       C  0.47323666  0.94119977  0.73875628    -0.29600
N2188       N  0.41212621  0.85947431  0.74368841    -0.46200
C2189       C  0.42004839  0.83241259  0.74533205    -0.05400
C2190       C  0.44917437  0.82999068  0.74506510    -0.22800
H2191       H  0.50452809  0.85476580  0.74320953     0.19000
H2192       H  0.41938538  0.91667438  0.73998648     0.17800
H2193       H  0.46003698  0.95957363  0.73838911     0.14100
H2194       H  0.46145553  0.81103762  0.74613214     0.13900
H2195       H  0.53222327  0.90647629  0.74152102     0.32100
H2196       H  0.39179005  0.86736891  0.74345418     0.34900
C2197       C  0.33852297  0.08202459  0.90952256     0.20500
C2198       C  0.33509735  0.11120880  0.90735897    -0.39400
C2199       C  0.33400577  0.12188419  0.87993369     0.19400
C2200       C  0.33610879  0.10468350  0.85673366     0.22100
C2201       C  0.33967336  0.07585086  0.85886496    -0.39900
C2202       C  0.34085387  0.06535675  0.88598075     0.20900
N2203       N  0.33938418  0.06622740  0.93289412    -0.33200
C2204       C  0.34224338  0.03948978  0.92372047    -0.10800
C2205       C  0.34342087  0.03836641  0.89467169    -0.29600
N2206       N  0.33457318  0.11942600  0.83309048    -0.46200
C2207       C  0.33160704  0.14642871  0.84093586    -0.05400
C2208       C  0.33110238  0.14892027  0.87006858    -0.22800
H2209       H  0.33326314  0.12453276  0.92555506     0.19000
H2210       H  0.34129426  0.06248957  0.84065889     0.17800
H2211       H  0.34521938  0.02002499  0.88150401     0.14100
H2212       H  0.32913863  0.16786951  0.88228936     0.13900
H2213       H  0.33768009  0.07307711  0.95354888     0.32100
H2214       H  0.33582039  0.11152473  0.81276377     0.34900
C2215       C  0.34159120  0.89662285  0.90998548     0.20500
C2216       C  0.33764072  0.86752382  0.90781791    -0.39400
C2217       C  0.33699569  0.85681265  0.88038449     0.19400
C2218       C  0.34019833  0.87388062  0.85725233     0.22100
C2219       C  0.34468756  0.90252608  0.85943234    -0.39900
C2220       C  0.34518288  0.91308832  0.88650013     0.20900
N2221       N  0.34125706  0.91262975  0.93322328    -0.33200
C2222       C  0.34456104  0.93923186  0.92392034    -0.10800
C2223       C  0.34729788  0.94012659  0.89504453    -0.29600
N2224       N  0.33803384  0.85931038  0.83355831    -0.46200
C2225       C  0.33349766  0.83255768  0.84130332    -0.05400
C2226       C  0.33277258  0.82999986  0.87040907    -0.22800
H2227       H  0.33461016  0.85439122  0.92595599     0.19000
H2228       H  0.34693284  0.91579220  0.84126695     0.17800
H2229       H  0.34950659  0.95836293  0.88185350     0.14100
H2230       H  0.32949776  0.81120020  0.88252238     0.13900
H2231       H  0.33825383  0.90604446  0.95379895     0.32100
H2232       H  0.33967442  0.86718217  0.81327377     0.34900
C2233       C  0.69041359  0.06394194  0.24918024     0.20500
C2234       C  0.71820446  0.07241617  0.24663312    -0.39400
C2235       C  0.72290629  0.10110503  0.24870590     0.19400
C2236       C  0.70156225  0.12019382  0.25264828     0.22100
C2237       C  0.67343107  0.11166121  0.25485536    -0.39900
C2238       C  0.66868793  0.08260847  0.25311823     0.20900
N2239       N  0.68111998  0.03763160  0.24905703    -0.33200
C2240       C  0.65316928  0.03899561  0.25301917    -0.10800
C2241       C  0.64443193  0.06682708  0.25557624    -0.29600
N2242       N  0.71201250  0.14631551  0.25443399    -0.46200
C2243       C  0.74013309  0.14350820  0.25173920    -0.05400
C2244       C  0.74757634  0.11560846  0.24812397    -0.22800
H2245       H  0.73506843  0.05760709  0.24383231     0.19000
H2246       H  0.65664092  0.12642689  0.25821069     0.17800
H2247       H  0.62345016  0.07440065  0.25920097     0.14100
H2248       H  0.76833861  0.10703661  0.24554391     0.13900
H2249       H  0.69333309  0.01967395  0.24674890     0.32100
H2250       H  0.70080063  0.16479408  0.25750349     0.34900
C2251       C  0.68912222  0.91295068  0.24528532     0.20500
C2252       C  0.71660760  0.90430382  0.24060353    -0.39400
C2253       C  0.72192911  0.87600719  0.24514499     0.19400
C2254       C  0.70138524  0.85740628  0.25333775     0.22100
C2255       C  0.67354542  0.86607893  0.25777228    -0.39900
C2256       C  0.66821368  0.89476203  0.25351027     0.20900
N2257       N  0.67959146  0.93914740  0.24387624    -0.33200
C2258       C  0.65233164  0.93820877  0.25133503    -0.10800
C2259       C  0.64422701  0.91072116  0.25732557    -0.29600
N2260       N  0.71229642  0.83161929  0.25653608    -0.46200
C2261       C  0.73993489  0.83415686  0.25051498    -0.05400
C2262       C  0.74660595  0.86154745  0.24336762    -0.22800
H2263       H  0.73287971  0.91878131  0.23451933     0.19000
H2264       H  0.65744793  0.85173855  0.26457405     0.17800
H2265       H  0.62400403  0.90359061  0.26446608     0.14100
H2266       H  0.76685045  0.86978555  0.23757830     0.13900
H2267       H  0.69131001  0.95683807  0.23873159     0.32100
H2268       H  0.70170871  0.81353426  0.26262762     0.34900
C2269       C  0.84577580  0.06560509  0.11275550     0.20500
C2270       C  0.84792883  0.07484910  0.14032107    -0.39400
C2271       C  0.84068025  0.10269991  0.14483567     0.19400
C2272       C  0.83208395  0.12030802  0.12360187     0.22100
C2273       C  0.82969079  0.11091499  0.09585158    -0.39900
C2274       C  0.83693053  0.08278190  0.09126523     0.20900
N2275       N  0.85073314  0.03973218  0.10347448    -0.33200
C2276       C  0.84488508  0.04007371  0.07583206    -0.10800
C2277       C  0.83634338  0.06663386  0.06728110    -0.29600
N2278       N  0.82708446  0.14614132  0.13365011    -0.46200
C2279       C  0.83246567  0.14452836  0.16141594    -0.05400
C2280       C  0.84084390  0.11778611  0.16906552    -0.22800
H2281       H  0.85464637  0.06127411  0.15708764     0.19000
H2282       H  0.82271166  0.12442468  0.07915652     0.17800
H2283       H  0.82970490  0.07297130  0.04664982     0.14100
H2284       H  0.84677311  0.11048034  0.18961223     0.13900
H2285       H  0.85702590  0.02264712  0.11549446     0.32100
H2286       H  0.82055900  0.16365463  0.12241523     0.34900
C2287       C  0.84478031  0.87411664  0.14225065     0.20500
C2288       C  0.85078330  0.90256475  0.13981864    -0.39400
C2289       C  0.85083874  0.91319037  0.11269055     0.19400
C2290       C  0.84513104  0.89698563  0.08942522     0.22100
C2291       C  0.83956141  0.86811723  0.09182252    -0.39900
C2292       C  0.83962689  0.85731400  0.11926112     0.20900
N2293       N  0.84301748  0.85949895  0.16602006    -0.33200
C2294       C  0.83688584  0.83292086  0.15850971    -0.10800
C2295       C  0.83461216  0.83063404  0.12940551    -0.29600
N2296       N  0.84429298  0.91307241  0.06624517    -0.46200
C2297       C  0.84946175  0.93954318  0.07522321    -0.05400
C2298       C  0.85400392  0.94017211  0.10394154    -0.22800
H2299       H  0.85455844  0.91566958  0.15787692     0.19000
H2300       H  0.83490146  0.85521847  0.07383445     0.17800
H2301       H  0.82987649  0.81206586  0.11737362     0.14100
H2302       H  0.85759687  0.95830437  0.11701827     0.13900
H2303       H  0.84602168  0.86720563  0.18622637     0.32100
H2304       H  0.83949366  0.90667458  0.04594649     0.34900
C2305       C  0.81910708  0.39983893  0.09364171     0.20500
C2306       C  0.82561689  0.39709074  0.12217554    -0.39400
C2307       C  0.82284837  0.36995682  0.13324094     0.19400
C2308       C  0.81446353  0.34751334  0.11697304     0.22100
C2309       C  0.80770364  0.35028996  0.08882690    -0.39900
C2310       C  0.81026773  0.37717243  0.07796239     0.20900
N2311       N  0.82165724  0.42273336  0.07737494    -0.33200
C2312       C  0.81449349  0.41409973  0.05133020    -0.10800
C2313       C  0.80697319  0.38599749  0.05113080    -0.29600
N2314       N  0.81434402  0.32381283  0.13170797    -0.46200
C2315       C  0.82255986  0.33094820  0.15773991    -0.05400
C2316       C  0.82793710  0.35962271  0.15969751    -0.22800
H2317       H  0.83283883  0.41454178  0.13462763     0.19000
H2318       H  0.80146658  0.33262758  0.07611749     0.17800
H2319       H  0.80117796  0.37327549  0.03333006     0.14100
H2320       H  0.83504777  0.37116364  0.17779890     0.13900
H2321       H  0.82883720  0.44247501  0.08332236     0.32100
H2322       H  0.80901488  0.30391492  0.12442094     0.34900
C2323       C  0.82045065  0.39660090  0.90888007     0.20500
C2324       C  0.82332534  0.39428781  0.87975639    -0.39400
C2325       C  0.82093567  0.36707745  0.86888487     0.19400
C2326       C  0.81593380  0.34413874  0.88579016     0.22100
C2327       C  0.81267747  0.34646864  0.91465861    -0.39900
C2328       C  0.81528219  0.37345111  0.92542861     0.20900
N2329       N  0.82259040  0.41984467  0.92467586    -0.33200
C2330       C  0.81875899  0.41107494  0.95131787    -0.10800
C2331       C  0.81418565  0.38234447  0.95249546    -0.29600
N2332       N  0.81586205  0.32048525  0.87087046    -0.46200
C2333       C  0.82096672  0.32821829  0.84418476    -0.05400
C2334       C  0.82400727  0.35716742  0.84197555    -0.22800
H2335       H  0.82766080  0.41217951  0.86664661     0.19000
H2336       H  0.80903772  0.32847525  0.92786260     0.17800
H2337       H  0.81072410  0.36956443  0.97082765     0.14100
H2338       H  0.82865244  0.36917631  0.82340365     0.13900
H2339       H  0.82656814  0.44018559  0.91785150     0.32100
H2340       H  0.81298941  0.30023790  0.87851586     0.34900
C2341       C  0.98831770  0.23456424  0.09093030     0.20500
C2342       C  0.98601765  0.23866166  0.11998319    -0.39400
C2343       C  0.95859414  0.23886279  0.13068006     0.19400
C2344       C  0.93551689  0.23545895  0.11361566     0.22100
C2345       C  0.93779410  0.23142087  0.08488761    -0.39900
C2346       C  0.96491868  0.23099118  0.07438089     0.20900
N2347       N  0.01171167  0.23385382  0.07516799    -0.33200
C2348       C  0.00267895  0.22978252  0.04859444    -0.10800
C2349       C  0.97372490  0.22777616  0.04750293    -0.29600
N2350       N  0.91185622  0.23608297  0.12841422    -0.46200
C2351       C  0.91962246  0.23974377  0.15529416    -0.05400
C2352       C  0.94865939  0.24165363  0.15767004    -0.22800
H2353       H  0.00410657  0.24140617  0.13321664     0.19000
H2354       H  0.91969739  0.22869445  0.07164249     0.17800
H2355       H  0.96069537  0.22491189  0.02926040     0.14100
H2356       H  0.96078275  0.24434317  0.17653734     0.13900
H2357       H  0.03227863  0.23636696  0.08192453     0.32100
H2358       H  0.89161347  0.23373147  0.12065099     0.34900
C2359       C  0.96658524  0.22860149  0.92326696     0.20500
C2360       C  0.93881102  0.22881351  0.91464295    -0.39400
C2361       C  0.93467423  0.23089992  0.88597367     0.19400
C2362       C  0.95645441  0.23258523  0.86702603     0.22100
C2363       C  0.98455632  0.23232059  0.87574660    -0.39900
C2364       C  0.98878111  0.23029417  0.90479467     0.20900
N2365       N  0.97552042  0.22731005  0.94957631    -0.33200
C2366       C  0.00372057  0.22824539  0.94838276    -0.10800
C2367       C  0.01298263  0.23006087  0.92071055    -0.29600
N2368       N  0.94645203  0.23457333  0.84081411    -0.46200
C2369       C  0.91821477  0.23417889  0.84354120    -0.05400
C2370       C  0.91023537  0.23189976  0.87136335    -0.22800
H2371       H  0.92160780  0.22765660  0.92929076     0.19000
H2372       H  0.00173341  0.23378088  0.86111415     0.17800
H2373       H  0.03430068  0.23142824  0.91333469     0.14100
H2374       H  0.88926995  0.23110409  0.87981067     0.13900
H2375       H  0.96294638  0.22619984  0.96740003     0.32100
H2376       H  0.95800853  0.23615723  0.82236537     0.34900
C2377       C  0.32080686  0.57911249  0.09384704     0.20500
C2378       C  0.32541733  0.58160882  0.12277862    -0.39400
C2379       C  0.32636261  0.60917829  0.13313116     0.19400
C2380       C  0.32308554  0.63216632  0.11587651     0.22100
C2381       C  0.31816175  0.62967594  0.08737684    -0.39900
C2382       C  0.31704144  0.60245190  0.07721498     0.20900
N2383       N  0.32061857  0.55565629  0.07813113    -0.33200
C2384       C  0.31674570  0.56466942  0.05153826    -0.10800
C2385       C  0.31409270  0.59358272  0.05040655    -0.29600
N2386       N  0.32504367  0.65602928  0.13021793    -0.46200
C2387       C  0.32941162  0.64848435  0.15700151    -0.05400
C2388       C  0.33038587  0.61939715  0.15981466    -0.22800
H2389       H  0.32844536  0.56359759  0.13608156     0.19000
H2390       H  0.31573067  0.64771212  0.07396814     0.17800
H2391       H  0.31167413  0.60661931  0.03209909     0.14100
H2392       H  0.33336384  0.60744951  0.17875487     0.13900
H2393       H  0.32381992  0.53515047  0.08485839     0.32100
H2394       H  0.32311209  0.67625886  0.12224558     0.34900
C2395       C  0.32537280  0.57930858  0.90926812     0.20500
C2396       C  0.32702442  0.58137375  0.87998051    -0.39400
C2397       C  0.32864504  0.60875566  0.86931212     0.19400
C2398       C  0.32860203  0.63199206  0.88661061     0.22100
C2399       C  0.32688700  0.62995847  0.91557259    -0.39900
C2400       C  0.32526079  0.60288601  0.92607204     0.20900
N2401       N  0.32375020  0.55596647  0.92498901    -0.33200
C2402       C  0.32251666  0.56522702  0.95177589    -0.10800
C2403       C  0.32340723  0.59426880  0.95309484    -0.29600
N2404       N  0.32994414  0.65559662  0.87182352    -0.46200
C2405       C  0.33078332  0.64766459  0.84472616    -0.05400
C2406       C  0.33008262  0.61854140  0.84218406    -0.22800
H2407       H  0.32698801  0.56314660  0.86656595     0.19000
H2408       H  0.32673348  0.64819672  0.92899443     0.17800
H2409       H  0.32293862  0.60743304  0.97151407     0.14100
H2410       H  0.33018452  0.60629527  0.82316043     0.13900
H2411       H  0.32348770  0.53526734  0.91802804     0.32100
H2412       H  0.32991809  0.67595176  0.87978261     0.34900
C2413       C  0.19056838  0.72247579  0.07704811     0.20500
C2414       C  0.21821851  0.71923947  0.08590489    -0.39400
C2415       C  0.22332680  0.72564486  0.11393026     0.19400
C2416       C  0.20245958  0.73427337  0.13200979     0.22100
C2417       C  0.17460238  0.73741290  0.12309331    -0.39900
C2418       C  0.16946738  0.73123192  0.09478835     0.20900
N2419       N  0.18095857  0.71913303  0.05104048    -0.33200
C2420       C  0.15349009  0.72592396  0.05178060    -0.10800
C2421       C  0.14537745  0.73341560  0.07885058    -0.29600
N2422       N  0.21302643  0.73920774  0.15763089    -0.46200
C2423       C  0.24080885  0.73390850  0.15558012    -0.05400
C2424       C  0.24792844  0.72542634  0.12862438    -0.22800
H2425       H  0.23469496  0.71276826  0.07180463     0.19000
H2426       H  0.15828062  0.74459783  0.13700626     0.17800
H2427       H  0.12504851  0.74057230  0.08566571     0.14100
H2428       H  0.26840243  0.71977063  0.12084409     0.13900
H2429       H  0.19273193  0.71332241  0.03357712     0.32100
H2430       H  0.20211632  0.74599784  0.17528605     0.34900
C2431       C  0.16854697  0.73097568  0.90919207     0.20500
C2432       C  0.17165850  0.73791628  0.88079707    -0.39400
C2433       C  0.19877544  0.73480797  0.86981724     0.19400
C2434       C  0.22088292  0.72559979  0.88598474     0.22100
C2435       C  0.21768807  0.71824298  0.91398643    -0.39900
C2436       C  0.19082216  0.72131926  0.92483289     0.20900
N2437       N  0.14556366  0.73358910  0.92532204    -0.33200
C2438       C  0.15368293  0.72557868  0.95126024    -0.10800
C2439       C  0.18161897  0.71761836  0.95155978    -0.29600
N2440       N  0.24468999  0.72543825  0.87132768    -0.46200
C2441       C  0.23790704  0.73445113  0.84546174    -0.05400
C2442       C  0.20939469  0.74036605  0.84355401    -0.22800
H2443       H  0.15449374  0.74574319  0.86839744     0.19000
H2444       H  0.23505154  0.71127929  0.92663695     0.17800
H2445       H  0.19393040  0.71104908  0.96932265     0.14100
H2446       H  0.19812952  0.74809459  0.82557940     0.13900
H2447       H  0.12601654  0.74113542  0.91932434     0.32100
H2448       H  0.26439795  0.71949815  0.87852123     0.34900
loop_ 
_geom_bond_atom_site_label_1 
_geom_bond_atom_site_label_2 
_geom_bond_distance 
_geom_bond_site_symmetry_2 
_ccdc_geom_bond_type 
C1            N2   1.358       .  A
C1            N6   1.350   1_556  A
C1         C2438   1.470       .  S
N2            C3   1.365   1_556  A
C3            N4   1.369       .  A
C3           C53   1.475       .  S
N4            C5   1.361       .  A
C5            N6   1.349       .  A
C5         C2420   1.477       .  S
C7            N8   1.347       .  A
C7           N12   1.357       .  A
C7         C2384   1.467       .  S
N8            C9   1.346   1_554  A
C9           N10   1.357       .  A
C9         C2402   1.468       .  S
N10          C11   1.367   1_556  A
C11          N12   1.366       .  A
C11          C71   1.466       .  S
C13          N14   1.358       .  A
C13          N18   1.348   1_554  A
C13        C2348   1.470       .  S
N14          C15   1.367   1_554  A
C15          N16   1.367       .  A
C15          C65   1.470       .  S
N16          C17   1.357       .  A
C17          N18   1.347       .  A
C17        C2366   1.470       .  S
C19          N20   1.346   1_556  A
C19          N24   1.358       .  A
C19        C2330   1.467       .  S
N20          C21   1.347       .  A
C21          N22   1.359       .  A
C21        C2312   1.469       .  S
N22          C23   1.368   1_554  A
C23          N24   1.366       .  A
C23          C57   1.472       .  S
C25          N26   1.349   1_545  A
C25          N30   1.357       .  A
C25        C2276   1.468       .  S
N26          C27   1.352       .  A
C27          N28   1.361       .  A
C27        C2297   1.476       .  S
N28          C29   1.368       .  A
C29          N30   1.363   1_565  A
C29          C75   1.474   1_554  S
C31          N32   1.350   1_545  A
C31          N36   1.359       .  A
C31        C2240   1.476       .  S
N32          C33   1.350       .  A
C33          N34   1.360       .  A
C33        C2258   1.477       .  S
N34          C35   1.368       .  A
C35          N36   1.367   1_565  A
C35          C93   1.474       .  S
C37          N38   1.354       .  A
C37          N42   1.347       .  A
C37        C2222   1.466       .  S
N38          C39   1.364       .  A
C39          N40   1.370   1_565  A
C39          C89   1.468   1_556  S
N40          C41   1.360       .  A
C41          N42   1.347   1_545  A
C41        C2204   1.474       .  S
C43          N44   1.359       .  A
C43          N48   1.347       .  A
C43        C2186   1.470       .  S
N44          C45   1.368       .  A
C45          N46   1.367   1_565  A
C45          C83   1.472       .  S
N46          C47   1.358       .  A
C47          N48   1.347   1_545  A
C47        C2168   1.467       .  S
C49          N50   1.350       .  A
C49          N54   1.357       .  A
C49        C2135   1.469       .  S
N50          C51   1.348   1_554  A
C51          N52   1.361       .  A
C51        C2150   1.477       .  S
N52          C53   1.370   1_556  A
C53          N54   1.365       .  A
C55          N56   1.356       .  A
C55          N60   1.346   1_554  A
C55        C2096   1.471       .  S
N56          C57   1.367   1_554  A
C57          N58   1.371       .  A
N58          C59   1.361       .  A
C59          N60   1.348       .  A
C59        C2117   1.475       .  S
C61          N62   1.345       .  A
C61          N66   1.358       .  A
C61        C2081   1.472       .  S
N62          C63   1.346   1_556  A
C63          N64   1.358       .  A
C63        C2060   1.471       .  S
N64          C65   1.369   1_554  A
C65          N66   1.369       .  A
C67          N68   1.350   1_556  A
C67          N72   1.357       .  A
C67        C2045   1.470       .  S
N68          C69   1.350       .  A
C69          N70   1.357       .  A
C69        C2024   1.469       .  S
N70          C71   1.365       .  A
C71          N72   1.365   1_554  A
C73          N74   1.360       .  A
C73          N78   1.350   1_545  A
C73        C1988   1.478       .  S
N74          C75   1.370   1_545  A
C75          N76   1.367       .  A
N76          C77   1.359       .  A
C77          N78   1.349       .  A
C77        C2006   1.476       .  S
C79          N80   1.348   1_545  A
C79          N84   1.358       .  A
C79        C1952   1.470       .  S
N80          C81   1.347       .  A
C81          N82   1.359       .  A
C81        C1970   1.472       .  S
N82          C83   1.368       .  A
C83          N84   1.368   1_565  A
C85          N86   1.348   1_545  A
C85          N90   1.356       .  A
C85        C1919   1.467       .  S
N86          C87   1.347       .  A
C87          N88   1.358       .  A
C87        C1937   1.474       .  S
N88          C89   1.369       .  A
C89          N90   1.365   1_565  A
C91          N92   1.358       .  A
C91          N96   1.348       .  A
C91        C1898   1.467       .  S
N92          C93   1.365       .  A
C93          N94   1.367   1_565  A
N94          C95   1.360       .  A
C95          N96   1.348   1_545  A
C95        C1880   1.469       .  S
C97          N98   1.347       .  A
C97         N102   1.359       .  A
C97        C1865   1.472       .  S
N98          C99   1.347       .  A
C99         N100   1.357       .  A
C99        C1847   1.469       .  S
N100        C101   1.367       .  A
C101        N102   1.368       .  A
C101        C111   1.470   1_545  S
C103        N104   1.358       .  A
C103        N108   1.346       .  A
C103       C1826   1.471       .  S
N104        C105   1.368       .  A
C105        N106   1.368       .  A
C105        C141   1.471       .  S
N106        C107   1.358       .  A
C107        N108   1.347       .  A
C107       C1808   1.472       .  S
C109        N110   1.358       .  A
C109        N114   1.350       .  A
C109       C1772   1.471       .  S
N110        C111   1.367       .  A
C111        N112   1.367       .  A
N112        C113   1.359       .  A
C113        N114   1.348       .  A
C113       C1790   1.474       .  S
C115        N116   1.346       .  A
C115        N120   1.357       .  A
C115       C1754   1.466       .  S
N116        C117   1.347       .  A
C117        N118   1.361       .  A
C117       C1736   1.473       .  S
N118        C119   1.370       .  A
C119        N120   1.365       .  A
C119        C131   1.472       .  S
C121        N122   1.356       .  A
C121        N126   1.350       .  A
C121       C1721   1.468       .  S
N122        C123   1.364       .  A
C123        N124   1.365       .  A
C123        C135   1.466   1_565  S
N124        C125   1.358       .  A
C125        N126   1.350       .  A
C125       C1703   1.470       .  S
C127        N128   1.350       .  A
C127        N132   1.357       .  A
C127       C1685   1.471       .  S
N128        C129   1.352       .  A
C129        N130   1.360       .  A
C129       C1664   1.475       .  S
N130        C131   1.368       .  A
C131        N132   1.363       .  A
C133        N134   1.358       .  A
C133        N138   1.348       .  A
C133       C1646   1.472       .  S
N134        C135   1.368       .  A
C135        N136   1.367       .  A
N136        C137   1.356       .  A
C137        N138   1.347       .  A
C137       C1628   1.471       .  S
C139        N140   1.359       .  A
C139        N144   1.345       .  A
C139       C1595   1.470       .  S
N140        C141   1.369       .  A
C141        N142   1.368       .  A
N142        C143   1.357       .  A
C143        N144   1.344       .  A
C143       C1613   1.468       .  S
C145        N146   1.349       .  A
C145        N150   1.358       .  A
C145       C1577   1.471       .  S
N146        C147   1.347       .  A
C147        N148   1.354       .  A
C147       C1559   1.464       .  S
N148        C149   1.364       .  A
C149        N150   1.367       .  A
C149        C291   1.464       .  S
C151        N152   1.350       .  A
C151        N156   1.356       .  A
C151       C1538   1.467       .  S
N152        C153   1.351       .  A
C153        N154   1.361       .  A
C153       C1520   1.474       .  S
N154        C155   1.367       .  A
C155        N156   1.363       .  A
C155        C363   1.470       .  S
O157       Zr193   2.433       .  S
O157        C168   1.292       .  A
O158       Zr192   2.445       .  S
O158        C169   1.293       .  A
O159       Zr165   2.439       .  S
O159        C170   1.292       .  A
O160       Zr165   2.437       .  S
O160        C171   1.293       .  A
O161       Zr195   2.432       .  S
O161        C171   1.289       .  A
O162       Zr194   2.450       .  S
O162        C170   1.294       .  A
O163       Zr165   2.445       .  S
O163        C169   1.293       .  A
O164       Zr165   2.453       .  S
O164        C168   1.294       .  A
Zr165       O166   2.338       .  S
Zr165       O167   2.334       .  S
Zr165       O175   2.344       .  S
Zr165       O173   2.345       .  S
O166       Zr192   2.343       .  S
O166       Zr195   2.343       .  S
O167       Zr193   2.331       .  S
O167       Zr194   2.330       .  S
C168       C2423   1.475       .  S
C169       C1682   1.474       .  S
C170       C1523   1.476       .  S
C171       C1718   1.468       .  S
H172        O173   0.965       .  S
O173       Zr192   2.346       .  S
O173       Zr194   2.338       .  S
H174        O175   0.964       .  S
O175       Zr193   2.347       .  S
O175       Zr195   2.341       .  S
O176       Zr192   2.449       .  S
O176        C199   1.294       .  A
O177       Zr193   2.447       .  S
O177        C200   1.292       .  A
O178       Zr194   2.418       .  S
O178        C201   1.289       .  A
O179       Zr195   2.441       .  S
O179        C202   1.292       .  A
O180       Zr195   2.447       .  S
O180        C203   1.295       .  A
O181       Zr194   2.415       .  S
O181        C204   1.287       .  A
O182       Zr196   2.434       .  S
O182        C205   1.292       .  A
O183       Zr196   2.442       .  S
O183        C206   1.292       .  A
O184       Zr194   2.450       .  S
O184        C205   1.293       .  A
O185       Zr195   2.419       .  S
O185        C206   1.289       .  A
O186       Zr192   2.436       .  S
O186        C201   1.291       .  A
O187       Zr193   2.435       .  S
O187        C204   1.292       .  A
O188       Zr193   2.430       .  S
O188        C203   1.289       .  A
O189       Zr192   2.439       .  S
O189        C202   1.292       .  A
O190       Zr196   2.427       .  S
O190        C199   1.289       .  A
O191       Zr196   2.429       .  S
O191        C200   1.291       .  A
Zr192       O198   2.341       .  S
Zr192       O210   2.338       .  S
Zr193       O197   2.344       .  S
Zr193       O208   2.333       .  S
Zr194       O198   2.337       .  S
Zr194       O208   2.339       .  S
Zr195       O197   2.341       .  S
Zr195       O210   2.341       .  S
Zr196       O197   2.339       .  S
Zr196       O198   2.342       .  S
Zr196       O210   2.340       .  S
Zr196       O208   2.338       .  S
C199       C1484   1.470       .  S
C200       C1466   1.472       .  S
C201       C1556   1.462       .  S
C202       C1502   1.470       .  S
C203       C1934   1.473       .  S
C204       C2387   1.462       .  S
C205       C1448   1.474       .  S
C206       C1901   1.465       .  S
H207        O208   0.964       .  S
H209        O210   0.964       .  S
C211        N212   1.359       .  A
C211        N216   1.349       .  A
C211       C1430   1.474       .  S
N212        C213   1.368       .  A
C213        N214   1.362       .  A
C213        C603   1.465       .  S
N214        C215   1.354       .  A
C215        N216   1.350       .  A
C215       C1415   1.465       .  S
C217        N218   1.358       .  A
C217        N222   1.347       .  A
C217       C1394   1.469       .  S
N218        C219   1.366       .  A
C219        N220   1.366       .  A
C219        C285   1.469   1_545  S
N220        C221   1.358       .  A
C221        N222   1.348       .  A
C221       C1376   1.470       .  S
O223       Zr259   2.431       .  S
O223        C234   1.291       .  A
O224       Zr258   2.449       .  S
O224        C235   1.293       .  A
O225       Zr231   2.451       .  S
O225        C236   1.294       .  A
O226       Zr231   2.446       .  S
O226        C237   1.294       .  A
O227       Zr261   2.432       .  S
O227        C237   1.290       .  A
O228       Zr260   2.432       .  S
O228        C236   1.291       .  A
O229       Zr231   2.425       .  S
O229        C235   1.291       .  A
O230       Zr231   2.441       .  S
O230        C234   1.292       .  A
Zr231       O232   2.338       .  S
Zr231       O233   2.334       .  S
Zr231       O241   2.341       .  S
Zr231       O239   2.345       .  S
O232       Zr258   2.338       .  S
O232       Zr261   2.340       .  S
O233       Zr259   2.333       .  S
O233       Zr260   2.337       .  S
C234       C2207   1.470       .  S
C235       C2042   1.471       .  S
C236       C1322   1.474       .  S
C237       C2078   1.471       .  S
H238        O239   0.964       .  S
O239       Zr258   2.344       .  S
O239       Zr260   2.338       .  S
H240        O241   0.965       .  S
O241       Zr259   2.340       .  S
O241       Zr261   2.341       .  S
O242       Zr258   2.440       .  S
O242        C265   1.293       .  A
O243       Zr259   2.447       .  S
O243        C266   1.293       .  A
O244       Zr260   2.427       .  S
O244        C267   1.291       .  A
O245       Zr261   2.432       .  S
O245        C268   1.290       .  A
O246       Zr261   2.425       .  S
O246        C269   1.290       .  A
O247       Zr260   2.429       .  S
O247        C270   1.290       .  A
O248       Zr262   2.430       .  S
O248        C271   1.291       .  A
O249       Zr262   2.433       .  S
O249        C272   1.290       .  A
O250       Zr260   2.439       .  S
O250        C271   1.290       .  A
O251       Zr261   2.441       .  S
O251        C272   1.293       .  A
O252       Zr258   2.438       .  S
O252        C267   1.291       .  A
O253       Zr259   2.427       .  S
O253        C270   1.290       .  A
O254       Zr259   2.431       .  S
O254        C269   1.290       .  A
O255       Zr258   2.431       .  S
O255        C268   1.292       .  A
O256       Zr262   2.427       .  S
O256        C265   1.289       .  A
O257       Zr262   2.424       .  S
O257        C266   1.290       .  A
Zr258       O264   2.343       .  S
Zr258       O276   2.345       .  S
Zr259       O263   2.333       .  S
Zr259       O274   2.337       .  S
Zr260       O264   2.338       .  S
Zr260       O274   2.336       .  S
Zr261       O263   2.334       .  S
Zr261       O276   2.337       .  S
Zr262       O263   2.334       .  S
Zr262       O264   2.339       .  S
Zr262       O276   2.343       .  S
Zr262       O274   2.334       .  S
C265       C1343   1.465       .  S
C266       C1379   1.469       .  S
C267       C1307   1.468       .  S
C268       C1358   1.466       .  S
C269       C1844   1.462       .  S
C270       C2171   1.462       .  S
C271       C1412   1.468       .  S
C272       C1811   1.471       .  S
H273        O274   0.964       .  S
H275        O276   0.964       .  S
C277        N278   1.348       .  A
C277        N282   1.358       .  A
C277       C1487   1.472       .  S
N278        C279   1.348       .  A
C279        N280   1.360       .  A
C279       C1286   1.477       .  S
N280        C281   1.370       .  A
C281        N282   1.367       .  A
C281        C437   1.474       .  S
C283        N284   1.358       .  A
C283        N288   1.349       .  A
C283       C1271   1.469       .  S
N284        C285   1.367       .  A
C285        N286   1.366       .  A
N286        C287   1.357       .  A
C287        N288   1.347       .  A
C287       C1505   1.468       .  S
C289        N290   1.356       .  A
C289        N294   1.349       .  A
C289       C1340   1.467       .  S
N290        C291   1.364       .  A
C291        N292   1.366       .  A
N292        C293   1.356       .  A
C293        N294   1.348       .  A
C293       C1250   1.469       .  S
C295        N296   1.356       .  A
C295        N300   1.346       .  A
C295       C1361   1.468       .  S
N296        C297   1.367       .  A
C297        N298   1.369       .  A
C297        C467   1.470       .  S
N298        C299   1.360       .  A
C299        N300   1.346       .  A
C299       C1235   1.474       .  S
O301       Zr337   2.437       .  S
O301        C312   1.292       .  A
O302       Zr336   2.441       .  S
O302        C313   1.292       .  A
O303       Zr309   2.446       .  S
O303        C314   1.294       .  A
O304       Zr309   2.454       .  S
O304        C315   1.294       .  A
O305       Zr339   2.435       .  S
O305        C315   1.292       .  A
O306       Zr338   2.421       .  S
O306        C314   1.288       .  A
O307       Zr309   2.434       .  S
O307        C313   1.292       .  A
O308       Zr309   2.437       .  S
O308        C312   1.291       .  A
Zr309       O310   2.338       .  S
Zr309       O311   2.339       .  S
Zr309       O319   2.341       .  S
Zr309       O317   2.342       .  S
O310       Zr336   2.340       .  S
O310       Zr339   2.337       .  S
O311       Zr337   2.337       .  S
O311       Zr338   2.344       .  S
C312       C2441   1.468       .  S
C313       C1739   1.470       .  S
C314       C1775   1.467       .  S
C315       C1232   1.476       .  S
H316        O317   0.963       .  S
O317       Zr336   2.343       .  S
O317       Zr338   2.340       .  S
H318        O319   0.964       .  S
O319       Zr337   2.336       .  S
O319       Zr339   2.341       .  S
O320       Zr336   2.451       .  S
O320        C343   1.295       .  A
O321       Zr337   2.428       .  S
O321        C344   1.289       .  A
O322       Zr338   2.441       .  S
O322        C345   1.291       .  A
O323       Zr339   2.426       .  S
O323        C346   1.291       .  A
O324       Zr339   2.439       .  S
O324        C347   1.291       .  A
O325       Zr338   2.432       .  S
O325        C348   1.292       .  A
O326       Zr340   2.436       .  S
O326        C349   1.290       .  A
O327       Zr340   2.418       .  S
O327        C350   1.289       .  A
O328       Zr338   2.433       .  S
O328        C349   1.291       .  A
O329       Zr339   2.447       .  S
O329        C350   1.292       .  A
O330       Zr336   2.430       .  S
O330        C345   1.291       .  A
O331       Zr337   2.434       .  S
O331        C348   1.290       .  A
O332       Zr337   2.425       .  S
O332        C347   1.290       .  A
O333       Zr336   2.433       .  S
O333        C346   1.290       .  A
O334       Zr340   2.434       .  S
O334        C343   1.290       .  A
O335       Zr340   2.430       .  S
O335        C344   1.292       .  A
Zr336       O342   2.337       .  S
Zr336       O354   2.338       .  S
Zr337       O341   2.340       .  S
Zr337       O352   2.344       .  S
Zr338       O342   2.334       .  S
Zr338       O352   2.334       .  S
Zr339       O341   2.338       .  S
Zr339       O354   2.341       .  S
Zr340       O341   2.339       .  S
Zr340       O342   2.336       .  S
Zr340       O354   2.341       .  S
Zr340       O352   2.334       .  S
C343       C1289   1.474       .  S
C344       C1214   1.464       .  S
C345       C1268   1.470       .  S
C346       C1253   1.466       .  S
C347       C2405   1.467       .  S
C348       C2225   1.466       .  S
C349       C2189   1.469       .  S
C350       C1196   1.468       .  S
H351        O352   0.963       .  S
H353        O354   0.964       .  S
C355        N356   1.351       .  A
C355        N360   1.359       .  A
C355       C1163   1.472       .  S
N356        C357   1.351       .  A
C357        N358   1.359       .  A
C357       C1178   1.472       .  S
N358        C359   1.366       .  A
C359        N360   1.366       .  A
C359        C459   1.474       .  S
C361        N362   1.360       .  A
C361        N366   1.346       .  A
C361       C1124   1.470       .  S
N362        C363   1.367       .  A
C363        N364   1.367       .  A
N364        C365   1.357       .  A
C365        N366   1.346       .  A
C365       C1145   1.468       .  S
C367        N368   1.360       .  A
C367        N372   1.351       .  A
C367       C1106   1.475       .  S
N368        C369   1.366       .  A
C369        N370   1.366       .  A
C369        C527   1.473       .  S
N370        C371   1.359       .  A
C371        N372   1.352       .  A
C371       C1451   1.475       .  S
C373        N374   1.359       .  A
C373        N378   1.349       .  A
C373       C1091   1.472       .  S
N374        C375   1.368       .  A
C375        N376   1.366       .  A
C375        C455   1.466   1_554  S
N376        C377   1.355       .  A
C377        N378   1.346       .  A
C377       C1469   1.469       .  S
O379       Zr415   2.442       .  S
O379        C390   1.293       .  A
O380       Zr414   2.442       .  S
O380        C391   1.292       .  A
O381       Zr387   2.434       .  S
O381        C392   1.292       .  A
O382       Zr387   2.438       .  S
O382        C393   1.291       .  A
O383       Zr417   2.435       .  S
O383        C393   1.292       .  A
O384       Zr416   2.429       .  S
O384        C392   1.289       .  A
O385       Zr387   2.440       .  S
O385        C391   1.293       .  A
O386       Zr387   2.448       .  S
O386        C390   1.293       .  A
Zr387       O388   2.337       .  S
Zr387       O389   2.335       .  S
Zr387       O397   2.342       .  S
Zr387       O395   2.346       .  S
O388       Zr414   2.337       .  S
O388       Zr417   2.334       .  S
O389       Zr415   2.334       .  S
O389       Zr416   2.344       .  S
C390       C2294   1.478       .  S
C391       C2099   1.474       .  S
C392       C2132   1.465       .  S
C393       C1088   1.471       .  S
H394        O395   0.964       .  S
O395       Zr414   2.346       .  S
O395       Zr416   2.345       .  S
H396        O397   0.965       .  S
O397       Zr415   2.338       .  S
O397       Zr417   2.346       .  S
O398       Zr414   2.442       .  S
O398        C421   1.293       .  A
O399       Zr415   2.422       .  S
O399        C422   1.288       .  A
O400       Zr416   2.442       .  S
O400        C423   1.292       .  A
O401       Zr417   2.442       .  S
O401        C424   1.293       .  A
O402       Zr417   2.444       .  S
O402        C425   1.292       .  A
O403       Zr416   2.438       .  S
O403        C426   1.293       .  A
O404       Zr418   2.436       .  S
O404        C427   1.290       .  A
O405       Zr418   2.427       .  S
O405        C428   1.290       .  A
O406       Zr416   2.441       .  S
O406        C427   1.293       .  A
O407       Zr417   2.445       .  S
O407        C428   1.292       .  A
O408       Zr414   2.435       .  S
O408        C423   1.292       .  A
O409       Zr415   2.439       .  S
O409        C426   1.291       .  A
O410       Zr415   2.443       .  S
O410        C425   1.294       .  A
O411       Zr414   2.435       .  S
O411        C424   1.291       .  A
O412       Zr418   2.442       .  S
O412        C421   1.292       .  A
O413       Zr418   2.443       .  S
O413        C422   1.294       .  A
Zr414       O420   2.336       .  S
Zr414       O432   2.344       .  S
Zr415       O419   2.341       .  S
Zr415       O430   2.352       .  S
Zr416       O420   2.338       .  S
Zr416       O430   2.337       .  S
Zr417       O419   2.339       .  S
Zr417       O432   2.338       .  S
Zr418       O419   2.341       .  S
Zr418       O420   2.342       .  S
Zr418       O432   2.341       .  S
Zr418       O430   2.337       .  S
C421       C1160   1.473       .  S
C422       C1070   1.464       .  S
C423       C1127   1.472       .  S
C424       C1109   1.471       .  S
C425       C2261   1.475       .  S
C426       C1700   1.469       .  S
C427       C1667   1.471       .  S
C428       C1052   1.470       .  S
H429        O430   0.964       .  S
H431        O432   0.965       .  S
C433        N434   1.349       .  A
C433        N438   1.358       .  A
C433       C1034   1.468       .  S
N434        C435   1.349       .  A
C435        N436   1.360       .  A
C435       C1055   1.473       .  S
N436        C437   1.368       .  A
C437        N438   1.365       .  A
C439        N440   1.347       .  A
C439        N444   1.356       .  A
C439       C1016   1.468       .  S
N440        C441   1.348       .  A
C441        N442   1.358       .  A
C441       C1073   1.469       .  S
N442        C443   1.367       .  A
C443        N444   1.365       .  A
C443        C609   1.469   1_565  S
C445        N446   1.348       .  A
C445        N450   1.359       .  A
C445        C998   1.468       .  S
N446        C447   1.348       .  A
C447        N448   1.356       .  A
C447       C1199   1.469       .  S
N448        C449   1.366       .  A
C449        N450   1.366       .  A
C449        C591   1.469       .  S
C451        N452   1.347       .  A
C451        N456   1.354       .  A
C451       C1217   1.466       .  S
N452        C453   1.347       .  A
C453        N454   1.359       .  A
C453        C980   1.470       .  S
N454        C455   1.367       .  A
C455        N456   1.366       .  A
C457        N458   1.359       .  A
C457        N462   1.349       .  A
C457        C965   1.472       .  S
N458        C459   1.368       .  A
C459        N460   1.367       .  A
N460        C461   1.359       .  A
C461        N462   1.348       .  A
C461        C947   1.473       .  S
C463        N464   1.350       .  A
C463        N468   1.359       .  A
C463        C926   1.471       .  S
N464        C465   1.350       .  A
C465        N466   1.356       .  A
C465        C911   1.469       .  S
N466        C467   1.365       .  A
C467        N468   1.366       .  A
O469       Zr505   2.446       .  S
O469        C480   1.294       .  A
O470       Zr504   2.436       .  S
O470        C481   1.291       .  A
O471       Zr477   2.443       .  S
O471        C482   1.292       .  A
O472       Zr477   2.439       .  S
O472        C483   1.292       .  A
O473       Zr507   2.441       .  S
O473        C483   1.292       .  A
O474       Zr506   2.438       .  S
O474        C482   1.292       .  A
O475       Zr477   2.434       .  S
O475        C481   1.292       .  A
O476       Zr477   2.442       .  S
O476        C480   1.292       .  A
Zr477       O478   2.335       .  S
Zr477       O479   2.339       .  S
Zr477       O487   2.341       .  S
Zr477       O485   2.343       .  S
O478       Zr504   2.333       .  S
O478       Zr507   2.340       .  S
O479       Zr505   2.336       .  S
O479       Zr506   2.345       .  S
C480       C2153   1.476       .  S
C481       C1757   1.468       .  S
C482        C929   1.471       .  S
C483       C1793   1.473       .  S
H484        O485   0.966       .  S
O485       Zr504   2.344       .  S
O485       Zr506   2.342       .  S
H486        O487   0.965       .  S
O487       Zr505   2.339       .  S
O487       Zr507   2.338       .  S
O488       Zr504   2.441       .  S
O488        C511   1.293       .  A
O489       Zr505   2.432       .  S
O489        C512   1.291       .  A
O490       Zr506   2.441       .  S
O490        C513   1.293       .  A
O491       Zr507   2.425       .  S
O491        C514   1.289       .  A
O492       Zr507   2.437       .  S
O492        C515   1.293       .  A
O493       Zr506   2.434       .  S
O493        C516   1.290       .  A
O494       Zr508   2.421       .  S
O494        C517   1.289       .  A
O495       Zr508   2.441       .  S
O495        C518   1.291       .  A
O496       Zr506   2.449       .  S
O496        C517   1.293       .  A
O497       Zr507   2.440       .  S
O497        C518   1.293       .  A
O498       Zr504   2.438       .  S
O498        C513   1.291       .  A
O499       Zr505   2.443       .  S
O499        C516   1.294       .  A
O500       Zr505   2.443       .  S
O500        C515   1.292       .  A
O501       Zr504   2.439       .  S
O501        C514   1.293       .  A
O502       Zr508   2.428       .  S
O502        C511   1.289       .  A
O503       Zr508   2.432       .  S
O503        C512   1.291       .  A
Zr504       O510   2.335       .  S
Zr504       O522   2.343       .  S
Zr505       O509   2.343       .  S
Zr505       O520   2.348       .  S
Zr506       O510   2.337       .  S
Zr506       O520   2.343       .  S
Zr507       O509   2.333       .  S
Zr507       O522   2.342       .  S
Zr508       O509   2.336       .  S
Zr508       O510   2.338       .  S
Zr508       O522   2.341       .  S
Zr508       O520   2.344       .  S
C511       C1037   1.468       .  S
C512        C983   1.466       .  S
C513        C962   1.472       .  S
C514       C1019   1.465       .  S
C515       C2009   1.474       .  S
C516       C2114   1.472       .  S
C517       C1001   1.470       .  S
C518       C1973   1.475       .  S
H519        O520   0.966       .  S
H521        O522   0.965       .  S
C523        N524   1.348       .  A
C523        N528   1.359       .  A
C523        C872   1.470       .  S
N524        C525   1.351       .  A
C525        N526   1.359       .  A
C525        C890   1.467       .  S
N526        C527   1.366       .  A
C527        N528   1.366       .  A
C529        N530   1.356       .  A
C529        N534   1.347       .  A
C529        C857   1.471       .  S
N530        C531   1.368       .  A
C531        N532   1.367       .  A
C531        C597   1.470   1_554  S
N532        C533   1.359       .  A
C533        N534   1.348       .  A
C533        C836   1.471       .  S
O535       Zr571   2.429       .  S
O535        C546   1.291       .  A
O536       Zr570   2.434       .  S
O536        C547   1.290       .  A
O537       Zr543   2.434       .  S
O537        C548   1.290       .  A
O538       Zr543   2.444       .  S
O538        C549   1.294       .  A
O539       Zr573   2.435       .  S
O539        C549   1.290       .  A
O540       Zr572   2.430       .  S
O540        C548   1.291       .  A
O541       Zr543   2.428       .  S
O541        C547   1.291       .  A
O542       Zr543   2.436       .  S
O542        C546   1.291       .  A
Zr543       O544   2.338       .  S
Zr543       O545   2.341       .  S
Zr543       O553   2.332       .  S
Zr543       O551   2.343       .  S
O544       Zr570   2.339       .  S
O544       Zr573   2.336       .  S
O545       Zr571   2.339       .  S
O545       Zr572   2.339       .  S
C546       C2351   1.466       .  S
C547       C1610   1.465       .  S
C548       C1142   1.466       .  S
C549       C1649   1.472       .  S
H550        O551   0.967       .  S
O551       Zr570   2.341       .  S
O551       Zr572   2.333       .  S
H552        O553   0.966       .  S
O553       Zr571   2.339       .  S
O553       Zr573   2.339       .  S
O554       Zr570   2.432       .  S
O554        C577   1.292       .  A
O555       Zr571   2.430       .  S
O555        C578   1.289       .  A
O556       Zr572   2.429       .  S
O556        C579   1.290       .  A
O557       Zr573   2.436       .  S
O557        C580   1.291       .  A
O558       Zr573   2.417       .  S
O558        C581   1.289       .  A
O559       Zr572   2.428       .  S
O559        C582   1.289       .  A
O560       Zr574   2.430       .  S
O560        C583   1.291       .  A
O561       Zr574   2.446       .  S
O561        C584   1.292       .  A
O562       Zr572   2.430       .  S
O562        C583   1.290       .  A
O563       Zr573   2.434       .  S
O563        C584   1.292       .  A
O564       Zr570   2.438       .  S
O564        C579   1.291       .  A
O565       Zr571   2.439       .  S
O565        C582   1.292       .  A
O566       Zr571   2.442       .  S
O566        C581   1.292       .  A
O567       Zr570   2.431       .  S
O567        C580   1.291       .  A
O568       Zr574   2.429       .  S
O568        C577   1.289       .  A
O569       Zr574   2.441       .  S
O569        C578   1.294       .  A
Zr570       O576   2.333       .  S
Zr570       O588   2.342       .  S
Zr571       O575   2.344       .  S
Zr571       O586   2.332       .  S
Zr572       O576   2.333       .  S
Zr572       O586   2.338       .  S
Zr573       O575   2.341       .  S
Zr573       O588   2.334       .  S
Zr574       O575   2.334       .  S
Zr574       O576   2.342       .  S
Zr574       O588   2.340       .  S
Zr574       O586   2.334       .  S
C577        C800   1.464       .  S
C578        C854   1.470       .  S
C579       C1181   1.468       .  S
C580        C821   1.467       .  S
C581       C2279   1.464       .  S
C582       C2315   1.466       .  S
C583        C893   1.463       .  S
C584       C2243   1.475       .  S
H585        O586   0.966       .  S
H587        O588   0.966       .  S
C589        N590   1.355       .  A
C589        N594   1.348       .  A
C589       C1304   1.467       .  S
N590        C591   1.364       .  A
C591        N592   1.368       .  A
N592        C593   1.360       .  A
C593        N594   1.351       .  A
C593        C785   1.474       .  S
C595        N596   1.362       .  A
C595        N600   1.349       .  A
C595       C1325   1.474       .  S
N596        C597   1.369       .  A
C597        N598   1.364       .  A
N598        C599   1.354       .  A
C599        N600   1.347       .  A
C599        C764   1.465       .  S
C601        N602   1.358       .  A
C601        N606   1.349       .  A
C601        C749   1.470       .  S
N602        C603   1.367       .  A
C603        N604   1.363       .  A
N604        C605   1.355       .  A
C605        N606   1.347       .  A
C605        C803   1.463       .  S
C607        N608   1.358       .  A
C607        N612   1.347       .  A
C607        C818   1.469       .  S
N608        C609   1.367       .  A
C609        N610   1.368       .  A
N610        C611   1.357       .  A
C611        N612   1.346       .  A
C611        C728   1.469       .  S
O613       Zr649   2.427       .  S
O613        C624   1.291       .  A
O614       Zr648   2.445       .  S
O614        C625   1.293       .  A
O615       Zr621   2.427       .  S
O615        C626   1.290       .  A
O616       Zr621   2.434       .  S
O616        C627   1.290       .  A
O617       Zr651   2.432       .  S
O617        C627   1.291       .  A
O618       Zr650   2.440       .  S
O618        C626   1.291       .  A
O619       Zr621   2.427       .  S
O619        C625   1.290       .  A
O620       Zr621   2.437       .  S
O620        C624   1.291       .  A
Zr621       O622   2.337       .  S
Zr621       O623   2.340       .  S
Zr621       O631   2.342       .  S
Zr621       O629   2.341       .  S
O622       Zr648   2.340       .  S
O622       Zr651   2.333       .  S
O623       Zr649   2.339       .  S
O623       Zr650   2.336       .  S
C624       C2369   1.467       .  S
C625       C1829   1.470       .  S
C626       C1862   1.468       .  S
C627        C908   1.466       .  S
H628        O629   0.966       .  S
O629       Zr648   2.342       .  S
O629       Zr650   2.344       .  S
H630        O631   0.966       .  S
O631       Zr649   2.340       .  S
O631       Zr651   2.341       .  S
O632       Zr648   2.435       .  S
O632        C655   1.292       .  A
O633       Zr649   2.436       .  S
O633        C656   1.290       .  A
O634       Zr650   2.433       .  S
O634        C657   1.290       .  A
O635       Zr651   2.441       .  S
O635        C658   1.293       .  A
O636       Zr651   2.436       .  S
O636        C659   1.291       .  A
O637       Zr650   2.450       .  S
O637        C660   1.295       .  A
O638       Zr652   2.433       .  S
O638        C661   1.290       .  A
O639       Zr652   2.443       .  S
O639        C662   1.293       .  A
O640       Zr650   2.433       .  S
O640        C661   1.292       .  A
O641       Zr651   2.432       .  S
O641        C662   1.290       .  A
O642       Zr648   2.441       .  S
O642        C657   1.293       .  A
O643       Zr649   2.435       .  S
O643        C660   1.290       .  A
O644       Zr649   2.427       .  S
O644        C659   1.290       .  A
O645       Zr648   2.442       .  S
O645        C658   1.292       .  A
O646       Zr652   2.427       .  S
O646        C655   1.289       .  A
O647       Zr652   2.435       .  S
O647        C656   1.292       .  A
Zr648       O654   2.336       .  S
Zr648       O666   2.343       .  S
Zr649       O653   2.335       .  S
Zr649       O664   2.334       .  S
Zr650       O654   2.341       .  S
Zr650       O664   2.335       .  S
Zr651       O653   2.342       .  S
Zr651       O666   2.340       .  S
Zr652       O653   2.330       .  S
Zr652       O654   2.339       .  S
Zr652       O666   2.344       .  S
Zr652       O664   2.338       .  S
C655        C746   1.465       .  S
C656        C767   1.466       .  S
C657        C731   1.469       .  S
C658        C944   1.474       .  S
C659       C2333   1.465       .  S
C660       C1991   1.475       .  S
C661       C1955   1.466       .  S
C662        C782   1.471       .  S
H663        O664   0.965       .  S
H665        O666   0.966       .  S
O667       Zr703   2.443       .  S
O667        C678   1.293       .  A
O668       Zr702   2.432       .  S
O668        C679   1.290       .  A
O669       Zr675   2.455       .  S
O669        C680   1.295       .  A
O670       Zr675   2.448       .  S
O670        C681   1.293       .  A
O671       Zr705   2.430       .  S
O671        C681   1.292       .  A
O672       Zr704   2.423       .  S
O672        C680   1.288       .  A
O673       Zr675   2.430       .  S
O673        C679   1.291       .  A
O674       Zr675   2.424       .  S
O674        C678   1.289       .  A
Zr675       O676   2.343       .  S
Zr675       O677   2.337       .  S
Zr675       O685   2.347       .  S
Zr675       O683   2.340       .  S
O676       Zr702   2.338       .  S
O676       Zr705   2.340       .  S
O677       Zr703   2.339       .  S
O677       Zr704   2.337       .  S
C678       C2063   1.466       .  S
C679       C1592   1.465       .  S
C680       C1631   1.470       .  S
C681       C1541   1.470       .  S
H682        O683   0.965       .  S
O683       Zr702   2.341       .  S
O683       Zr704   2.342       .  S
H684        O685   0.965       .  S
O685       Zr703   2.334       .  S
O685       Zr705   2.343       .  S
O686       Zr702   2.432       .  S
O686        C709   1.292       .  A
O687       Zr703   2.433       .  S
O687        C710   1.290       .  A
O688       Zr704   2.445       .  S
O688        C711   1.292       .  A
O689       Zr705   2.442       .  S
O689        C712   1.293       .  A
O690       Zr705   2.436       .  S
O690        C713   1.290       .  A
O691       Zr704   2.439       .  S
O691        C714   1.293       .  A
O692       Zr706   2.439       .  S
O692        C715   1.291       .  A
O693       Zr706   2.434       .  S
O693        C716   1.292       .  A
O694       Zr704   2.426       .  S
O694        C715   1.290       .  A
O695       Zr705   2.442       .  S
O695        C716   1.292       .  A
O696       Zr702   2.420       .  S
O696        C711   1.289       .  A
O697       Zr703   2.428       .  S
O697        C714   1.289       .  A
O698       Zr703   2.438       .  S
O698        C713   1.292       .  A
O699       Zr702   2.434       .  S
O699        C712   1.290       .  A
O700       Zr706   2.440       .  S
O700        C709   1.291       .  A
O701       Zr706   2.439       .  S
O701        C710   1.293       .  A
Zr702       O708   2.330       .  S
Zr702       O720   2.333       .  S
Zr703       O707   2.336       .  S
Zr703       O718   2.349       .  S
Zr704       O708   2.330       .  S
Zr704       O718   2.346       .  S
Zr705       O707   2.338       .  S
Zr705       O720   2.336       .  S
Zr706       O707   2.335       .  S
Zr706       O708   2.332       .  S
Zr706       O720   2.342       .  S
Zr706       O718   2.343       .  S
C709       C1433   1.471       .  S
C710        C839   1.469       .  S
C711       C1397   1.468       .  S
C712       C1574   1.472       .  S
C713       C2027   1.469       .  S
C714       C1916   1.467       .  S
C715       C1883   1.466       .  S
C716        C875   1.468       .  S
H717        O718   0.965       .  S
H719        O720   0.964       .  S
C721        N727   1.333       .  A
C721        C726   1.384       .  A
C721        C722   1.396       .  A
C722        C723   1.393       .  A
C722        H733   1.083       .  S
C723        C732   1.370       .  A
C723        C724   1.384       .  A
C724        N730   1.346       .  A
C724        C725   1.410       .  A
C725        C726   1.408       .  A
C725        H734   1.082       .  S
C726        C729   1.389       .  A
N727        C728   1.353       .  A
N727        H737   1.045       .  S
C728        C729   1.398       .  A
C729        H735   1.082       .  S
N730        C731   1.359       .  A
N730        H738   1.045       .  S
C731        C732   1.390       .  A
C732        H736   1.083       .  S
C739        N745   1.336       .  A
C739        C744   1.385       .  A
C739        C740   1.391       .  A
C740        C741   1.392       .  A
C740        H751   1.083       .  S
C741        C750   1.361       .  A
C741        C742   1.384       .  A
C742        N748   1.351       .  A
C742        C743   1.409       .  A
C743        C744   1.410       .  A
C743        H752   1.082       .  S
C744        C747   1.383       .  A
N745        C746   1.350       .  A
N745        H755   1.045       .  S
C746        C747   1.399       .  A
C747        H753   1.082       .  S
N748        C749   1.359       .  A
N748        H756   1.044       .  S
C749        C750   1.390       .  A
C750        H754   1.083       .  S
C757        N763   1.334       .  A
C757        C762   1.385       .  A
C757        C758   1.396       .  A
C758        C759   1.393       .  A
C758        H769   1.083       .  S
C759        C768   1.370       .  A
C759        C760   1.384       .  A
C760        N766   1.345       .  A
C760        C761   1.408       .  A
C761        C762   1.406       .  A
C761        H770   1.082       .  S
C762        C765   1.386       .  A
N763        C764   1.352       .  A
N763        H773   1.045       .  S
C764        C765   1.397       .  A
C765        H771   1.082       .  S
N766        C767   1.357       .  A
N766        H774   1.045       .  S
C767        C768   1.391       .  A
C768        H772   1.083       .  S
C775        N781   1.337       .  A
C775        C780   1.385       .  A
C775        C776   1.394       .  A
C776        C777   1.394       .  A
C776        H787   1.083       .  S
C777        C786   1.364       .  A
C777        C778   1.384       .  A
C778        N784   1.352       .  A
C778        C779   1.410       .  A
C779        C780   1.411       .  A
C779        H788   1.082       .  S
C780        C783   1.386       .  A
N781        C782   1.351       .  A
N781        H791   1.045       .  S
C782        C783   1.401       .  A
C783        H789   1.082       .  S
N784        C785   1.359       .  A
N784        H792   1.044       .  S
C785        C786   1.392       .  A
C786        H790   1.083       .  S
C793        N799   1.346       .  A
C793        C798   1.384       .  A
C793        C794   1.408       .  A
C794        C795   1.407       .  A
C794        H805   1.082       .  S
C795        C804   1.385       .  A
C795        C796   1.385       .  A
C796        N802   1.332       .  A
C796        C797   1.393       .  A
C797        C798   1.391       .  A
C797        H806   1.083       .  S
C798        C801   1.366       .  A
N799        C800   1.358       .  A
N799        H809   1.045       .  S
C800        C801   1.389       .  A
C801        H807   1.083       .  S
N802        C803   1.351       .  A
N802        H810   1.045       .  S
C803        C804   1.397       .  A
C804        H808   1.082       .  S
C811        N817   1.350       .  A
C811        C816   1.384       .  A
C811        C812   1.408       .  A
C812        C813   1.409       .  A
C812        H823   1.082       .  S
C813        C822   1.381       .  A
C813        C814   1.385       .  A
C814        N820   1.337       .  A
C814        C815   1.393       .  A
C815        C816   1.394       .  A
C815        H824   1.083       .  S
C816        C819   1.362       .  A
N817        C818   1.357       .  A
N817        H827   1.044       .  S
C818        C819   1.392       .  A
C819        H825   1.083       .  S
N820        C821   1.352       .  A
N820        H828   1.045       .  S
C821        C822   1.399       .  A
C822        H826   1.082       .  S
C829        N835   1.350       .  A
C829        C834   1.384       .  A
C829        C830   1.408       .  A
C830        C831   1.409       .  A
C830        H841   1.082       .  S
C831        C840   1.383       .  A
C831        C832   1.385       .  A
C832        N838   1.338       .  A
C832        C833   1.395       .  A
C833        C834   1.395       .  A
C833        H842   1.083       .  S
C834        C837   1.364       .  A
N835        C836   1.357       .  A
N835        H845   1.044       .  S
C836        C837   1.393       .  A
C837        H843   1.083       .  S
N838        C839   1.352       .  A
N838        H846   1.045       .  S
C839        C840   1.399       .  A
C840        H844   1.082       .  S
C847        N853   1.348       .  A
C847        C852   1.384       .  A
C847        C848   1.413       .  A
C848        C849   1.411       .  A
C848        H859   1.082       .  S
C849        C858   1.391       .  A
C849        C850   1.384       .  A
C850        N856   1.331       .  A
C850        C851   1.393       .  A
C851        C852   1.389       .  A
C851        H860   1.083       .  S
C852        C855   1.366       .  A
N853        C854   1.361       .  A
N853        H863   1.045       .  S
C854        C855   1.389       .  A
C855        H861   1.083       .  S
N856        C857   1.352       .  A
N856        H864   1.045       .  S
C857        C858   1.401       .  A
C858        H862   1.082       .  S
C865        N871   1.338       .  A
C865        C870   1.384       .  A
C865        C866   1.400       .  A
C866        C867   1.398       .  A
C866        H877   1.083       .  S
C867        C876   1.374       .  A
C867        C868   1.385       .  A
C868        N874   1.345       .  A
C868        C869   1.407       .  A
C869        C870   1.406       .  A
C869        H878   1.082       .  S
C870        C873   1.385       .  A
N871        C872   1.355       .  A
N871        H881   1.045       .  S
C872        C873   1.396       .  A
C873        H879   1.082       .  S
N874        C875   1.356       .  A
N874        H882   1.045       .  S
C875        C876   1.393       .  A
C876        H880   1.083       .  S
C883        N889   1.350       .  A
C883        C888   1.385       .  A
C883        C884   1.408       .  A
C884        C885   1.408       .  A
C884        H895   1.082       .  S
C885        C894   1.382       .  A
C885        C886   1.385       .  A
C886        N892   1.335       .  A
C886        C887   1.392       .  A
C887        C888   1.392       .  A
C887        H896   1.083       .  S
C888        C891   1.362       .  A
N889        C890   1.358       .  A
N889        H899   1.044       .  S
C890        C891   1.390       .  A
C891        H897   1.083       .  S
N892        C893   1.351       .  A
N892        H900   1.045       .  S
C893        C894   1.398       .  A
C894        H898   1.082       .  S
C901        N907   1.335       .  A
C901        C906   1.385       .  A
C901        C902   1.392       .  A
C902        C903   1.392       .  A
C902        H913   1.083       .  S
C903        C912   1.363       .  A
C903        C904   1.384       .  A
C904        N910   1.349   1_655  A
C904        C905   1.409       .  A
C905        C906   1.410       .  A
C905        H914   1.082   1_655  S
C906        C909   1.385       .  A
N907        C908   1.351       .  A
N907        H917   1.045       .  S
C908        C909   1.400       .  A
C909        H915   1.082       .  S
N910        C911   1.359       .  A
N910        H918   1.044       .  S
C911        C912   1.390   1_455  A
C912        H916   1.083       .  S
C919        N925   1.349   1_655  A
C919        C924   1.385       .  A
C919        C920   1.407       .  A
C920        C921   1.408       .  A
C920        H931   1.082   1_655  S
C921        C930   1.382       .  A
C921        C922   1.385       .  A
C922        N928   1.340       .  A
C922        C923   1.398       .  A
C923        C924   1.398       .  A
C923        H932   1.083       .  S
C924        C927   1.368       .  A
N925        C926   1.357       .  A
N925        H935   1.044       .  S
C926        C927   1.394   1_455  A
C927        H933   1.083       .  S
N928        C929   1.354       .  A
N928        H936   1.045       .  S
C929        C930   1.398       .  A
C930        H934   1.082       .  S
C937        N943   1.348       .  A
C937        C942   1.384       .  A
C937        C938   1.411       .  A
C938        C939   1.409       .  A
C938        H949   1.082       .  S
C939        C948   1.389       .  A
C939        C940   1.384       .  A
C940        N946   1.335       .  A
C940        C941   1.397       .  A
C941        C942   1.395       .  A
C941        H950   1.083       .  S
C942        C945   1.371       .  A
N943        C944   1.360       .  A
N943        H953   1.045       .  S
C944        C945   1.392       .  A
C945        H951   1.083       .  S
N946        C947   1.354       .  A
N946        H954   1.045       .  S
C947        C948   1.399       .  A
C948        H952   1.082       .  S
C955        N961   1.339       .  A
C955        C960   1.385       .  A
C955        C956   1.395       .  A
C956        C957   1.396       .  A
C956        H967   1.083       .  S
C957        C966   1.365       .  A
C957        C958   1.384       .  A
C958        N964   1.351       .  A
C958        C959   1.408       .  A
C959        C960   1.409       .  A
C959        H968   1.082       .  S
C960        C963   1.382       .  A
N961        C962   1.353       .  A
N961        H971   1.045       .  S
C962        C963   1.399       .  A
C963        H969   1.082       .  S
N964        C965   1.358       .  A
N964        H972   1.044       .  S
C965        C966   1.392       .  A
C966        H970   1.083       .  S
C973        N979   1.350       .  A
C973        C978   1.385       .  A
C973        C974   1.406       .  A
C974        C975   1.407       .  A
C974        H985   1.082       .  S
C975        C984   1.379       .  A
C975        C976   1.385       .  A
C976        N982   1.339       .  A
C976        C977   1.395       .  A
C977        C978   1.396       .  A
C977        H986   1.083       .  S
C978        C981   1.363       .  A
N979        C980   1.357       .  A
N979        H989   1.044       .  S
C980        C981   1.393       .  A
C981        H987   1.083       .  S
N982        C983   1.353       .  A
N982        H990   1.045       .  S
C983        C984   1.397       .  A
C984        H988   1.082       .  S
C991        N997   1.334       .  A
C991        C996   1.384       .  A
C991        C992   1.396       .  A
C992        C993   1.394       .  A
C992       H1003   1.083       .  S
C993       C1002   1.368       .  A
C993        C994   1.384       .  A
C994       N1000   1.347       .  A
C994        C995   1.408       .  A
C995        C996   1.407       .  A
C995       H1004   1.082       .  S
C996        C999   1.386       .  A
N997        C998   1.354       .  A
N997       H1007   1.045       .  S
C998        C999   1.397       .  A
C999       H1005   1.082       .  S
N1000      C1001   1.358       .  A
N1000      H1008   1.045       .  S
C1001      C1002   1.393       .  A
C1002      H1006   1.083       .  S
C1009      N1015   1.349       .  A
C1009      C1014   1.385       .  A
C1009      C1010   1.407       .  A
C1010      C1011   1.408       .  A
C1010      H1021   1.082       .  S
C1011      C1020   1.381       .  A
C1011      C1012   1.385       .  A
C1012      N1018   1.336       .  A
C1012      C1013   1.393       .  A
C1013      C1014   1.393       .  A
C1013      H1022   1.083       .  S
C1014      C1017   1.363       .  A
N1015      C1016   1.357       .  A
N1015      H1025   1.044       .  S
C1016      C1017   1.392       .  A
C1017      H1023   1.083       .  S
N1018      C1019   1.351       .  A
N1018      H1026   1.045       .  S
C1019      C1020   1.399       .  A
C1020      H1024   1.082       .  S
C1027      N1033   1.333       .  A
C1027      C1032   1.385       .  A
C1027      C1028   1.396       .  A
C1028      C1029   1.392       .  A
C1028      H1039   1.083       .  S
C1029      C1038   1.370       .  A
C1029      C1030   1.384       .  A
C1030      N1036   1.345       .  A
C1030      C1031   1.409       .  A
C1031      C1032   1.407       .  A
C1031      H1040   1.082       .  S
C1032      C1035   1.387       .  A
N1033      C1034   1.353       .  A
N1033      H1043   1.045       .  S
C1034      C1035   1.398       .  A
C1035      H1041   1.082       .  S
N1036      C1037   1.359       .  A
N1036      H1044   1.045       .  S
C1037      C1038   1.390       .  A
C1038      H1042   1.083       .  S
C1045      N1051   1.337       .  A
C1045      C1050   1.385       .  A
C1045      C1046   1.396       .  A
C1046      C1047   1.396       .  A
C1046      H1057   1.083       .  S
C1047      C1056   1.367       .  A
C1047      C1048   1.384       .  A
C1048      N1054   1.350       .  A
C1048      C1049   1.409       .  A
C1049      C1050   1.409       .  A
C1049      H1058   1.082       .  S
C1050      C1053   1.385       .  A
N1051      C1052   1.353       .  A
N1051      H1061   1.045       .  S
C1052      C1053   1.399       .  A
C1053      H1059   1.082       .  S
N1054      C1055   1.358       .  A
N1054      H1062   1.044       .  S
C1055      C1056   1.394       .  A
C1056      H1060   1.083       .  S
C1063      N1069   1.336       .  A
C1063      C1068   1.386       .  A
C1063      C1064   1.392       .  A
C1064      C1065   1.392       .  A
C1064      H1075   1.083       .  S
C1065      C1074   1.361       .  A
C1065      C1066   1.385       .  A
C1066      N1072   1.350       .  A
C1066      C1067   1.408       .  A
C1067      C1068   1.409       .  A
C1067      H1076   1.082       .  S
C1068      C1071   1.382       .  A
N1069      C1070   1.350       .  A
N1069      H1079   1.045       .  S
C1070      C1071   1.399       .  A
C1071      H1077   1.082       .  S
N1072      C1073   1.358       .  A
N1072      H1080   1.044       .  S
C1073      C1074   1.391       .  A
C1074      H1078   1.083       .  S
C1081      N1087   1.335       .  A
C1081      C1086   1.385       .  A
C1081      C1082   1.391       .  A
C1082      C1083   1.391       .  A
C1082      H1093   1.083       .  S
C1083      C1092   1.360       .  A
C1083      C1084   1.384       .  A
C1084      N1090   1.353       .  A
C1084      C1085   1.412       .  A
C1085      C1086   1.413       .  A
C1085      H1094   1.082       .  S
C1086      C1089   1.386       .  A
N1087      C1088   1.351       .  A
N1087      H1097   1.045       .  S
C1088      C1089   1.402       .  A
C1089      H1095   1.082       .  S
N1090      C1091   1.360       .  A
N1090      H1098   1.044       .  S
C1091      C1092   1.391       .  A
C1092      H1096   1.083       .  S
C1099      N1105   1.337       .  A
C1099      C1104   1.384       .  A
C1099      C1100   1.398       .  A
C1100      C1101   1.396       .  A
C1100      H1111   1.083       .  S
C1101      C1110   1.371       .  A
C1101      C1102   1.384       .  A
C1102      N1108   1.348       .  A
C1102      C1103   1.410       .  A
C1103      C1104   1.409       .  A
C1103      H1112   1.082       .  S
C1104      C1107   1.388       .  A
N1105      C1106   1.354       .  A
N1105      H1115   1.045       .  S
C1106      C1107   1.399       .  A
C1107      H1113   1.082       .  S
N1108      C1109   1.359       .  A
N1108      H1116   1.045       .  S
C1109      C1110   1.391       .  A
C1110      H1114   1.083       .  S
C1117      N1123   1.334       .  A
C1117      C1122   1.384       .  A
C1117      C1118   1.397       .  A
C1118      C1119   1.395       .  A
C1118      H1129   1.083       .  S
C1119      C1128   1.370       .  A
C1119      C1120   1.384       .  A
C1120      N1126   1.347       .  A
C1120      C1121   1.409       .  A
C1121      C1122   1.407       .  A
C1121      H1130   1.082   1_655  S
C1122      C1125   1.387   1_655  A
N1123      C1124   1.355   1_655  A
N1123      H1133   1.045       .  S
C1124      C1125   1.397       .  A
C1125      H1131   1.082       .  S
N1126      C1127   1.358       .  A
N1126      H1134   1.045       .  S
C1127      C1128   1.392       .  A
C1128      H1132   1.083       .  S
C1135      N1141   1.346       .  A
C1135      C1140   1.384       .  A
C1135      C1136   1.411       .  A
C1136      C1137   1.409       .  A
C1136      H1147   1.082   1_655  S
C1137      C1146   1.389   1_655  A
C1137      C1138   1.384       .  A
C1138      N1144   1.330       .  A
C1138      C1139   1.393       .  A
C1139      C1140   1.390       .  A
C1139      H1148   1.083       .  S
C1140      C1143   1.367       .  A
N1141      C1142   1.359       .  A
N1141      H1151   1.045       .  S
C1142      C1143   1.389       .  A
C1143      H1149   1.083       .  S
N1144      C1145   1.352   1_655  A
N1144      H1152   1.045       .  S
C1145      C1146   1.400       .  A
C1146      H1150   1.082       .  S
C1153      N1159   1.348       .  A
C1153      C1158   1.384       .  A
C1153      C1154   1.410       .  A
C1154      C1155   1.409       .  A
C1154      H1165   1.082       .  S
C1155      C1164   1.387       .  A
C1155      C1156   1.385       .  A
C1156      N1162   1.336       .  A
C1156      C1157   1.397       .  A
C1157      C1158   1.395       .  A
C1157      H1166   1.083       .  S
C1158      C1161   1.370       .  A
N1159      C1160   1.359       .  A
N1159      H1169   1.045       .  S
C1160      C1161   1.392       .  A
C1161      H1167   1.083       .  S
N1162      C1163   1.354       .  A
N1162      H1170   1.045       .  S
C1163      C1164   1.398       .  A
C1164      H1168   1.082       .  S
C1171      N1177   1.349       .  A
C1171      C1176   1.384       .  A
C1171      C1172   1.408       .  A
C1172      C1173   1.408       .  A
C1172      H1183   1.082       .  S
C1173      C1182   1.383       .  A
C1173      C1174   1.385       .  A
C1174      N1180   1.337       .  A
C1174      C1175   1.396       .  A
C1175      C1176   1.396       .  A
C1175      H1184   1.083       .  S
C1176      C1179   1.367       .  A
N1177      C1178   1.358       .  A
N1177      H1187   1.044       .  S
C1178      C1179   1.393       .  A
C1179      H1185   1.083       .  S
N1180      C1181   1.353       .  A
N1180      H1188   1.045       .  S
C1181      C1182   1.398       .  A
C1182      H1186   1.082       .  S
C1189      N1195   1.348       .  A
C1189      C1194   1.384       .  A
C1189      C1190   1.410       .  A
C1190      C1191   1.409       .  A
C1190      H1201   1.082       .  S
C1191      C1200   1.388       .  A
C1191      C1192   1.385       .  A
C1192      N1198   1.332       .  A
C1192      C1193   1.393       .  A
C1193      C1194   1.391       .  A
C1193      H1202   1.083       .  S
C1194      C1197   1.364       .  A
N1195      C1196   1.359       .  A
N1195      H1205   1.044       .  S
C1196      C1197   1.390       .  A
C1197      H1203   1.083       .  S
N1198      C1199   1.352       .  A
N1198      H1206   1.045       .  S
C1199      C1200   1.400       .  A
C1200      H1204   1.082       .  S
C1207      N1213   1.347       .  A
C1207      C1212   1.384       .  A
C1207      C1208   1.411       .  A
C1208      C1209   1.410       .  A
C1208      H1219   1.082       .  S
C1209      C1218   1.390       .  A
C1209      C1210   1.385       .  A
C1210      N1216   1.329       .  A
C1210      C1211   1.391       .  A
C1211      C1212   1.387       .  A
C1211      H1220   1.083       .  S
C1212      C1215   1.363       .  A
N1213      C1214   1.360       .  A
N1213      H1223   1.045       .  S
C1214      C1215   1.387       .  A
C1215      H1221   1.083       .  S
N1216      C1217   1.350       .  A
N1216      H1224   1.045       .  S
C1217      C1218   1.401       .  A
C1218      H1222   1.082       .  S
C1225      N1231   1.340       .  A
C1225      C1230   1.384       .  A
C1225      C1226   1.398       .  A
C1226      C1227   1.398       .  A
C1226      H1237   1.083       .  S
C1227      C1236   1.367       .  A
C1227      C1228   1.384       .  A
C1228      N1234   1.351       .  A
C1228      C1229   1.408       .  A
C1229      C1230   1.409       .  A
C1229      H1238   1.082       .  S
C1230      C1233   1.384       .  A
N1231      C1232   1.355       .  A
N1231      H1241   1.045       .  S
C1232      C1233   1.399       .  A
C1233      H1239   1.082       .  S
N1234      C1235   1.357       .  A
N1234      H1242   1.044       .  S
C1235      C1236   1.395       .  A
C1236      H1240   1.083       .  S
C1243      N1249   1.333       .  A
C1243      C1248   1.385       .  A
C1243      C1244   1.394       .  A
C1244      C1245   1.391       .  A
C1244      H1255   1.083       .  S
C1245      C1254   1.366       .  A
C1245      C1246   1.384       .  A
C1246      N1252   1.347       .  A
C1246      C1247   1.410       .  A
C1247      C1248   1.409       .  A
C1247      H1256   1.082       .  S
C1248      C1251   1.388       .  A
N1249      C1250   1.352       .  A
N1249      H1259   1.045       .  S
C1250      C1251   1.399       .  A
C1251      H1257   1.082       .  S
N1252      C1253   1.359       .  A
N1252      H1260   1.045       .  S
C1253      C1254   1.389       .  A
C1254      H1258   1.083       .  S
C1261      N1267   1.348       .  A
C1261      C1266   1.384       .  A
C1261      C1262   1.411       .  A
C1262      C1263   1.410       .  A
C1262      H1273   1.082       .  S
C1263      C1272   1.390       .  A
C1263      C1264   1.384       .  A
C1264      N1270   1.331       .  A
C1264      C1265   1.393       .  A
C1265      C1266   1.390       .  A
C1265      H1274   1.083       .  S
C1266      C1269   1.366       .  A
N1267      C1268   1.360       .  A
N1267      H1277   1.045       .  S
C1268      C1269   1.390       .  A
C1269      H1275   1.083       .  S
N1270      C1271   1.352       .  A
N1270      H1278   1.045       .  S
C1271      C1272   1.400       .  A
C1272      H1276   1.082       .  S
C1279      N1285   1.354       .  A
C1279      C1284   1.384       .  A
C1279      C1280   1.411       .  A
C1280      C1281   1.413       .  A
C1280      H1291   1.082       .  S
C1281      C1290   1.385       .  A
C1281      C1282   1.385       .  A
C1282      N1288   1.340       .  A
C1282      C1283   1.396       .  A
C1283      C1284   1.396       .  A
C1283      H1292   1.083       .  S
C1284      C1287   1.365       .  A
N1285      C1286   1.360       .  A
N1285      H1295   1.044       .  S
C1286      C1287   1.393       .  A
C1287      H1293   1.083       .  S
N1288      C1289   1.352       .  A
N1288      H1296   1.045       .  S
C1289      C1290   1.401       .  A
C1290      H1294   1.082       .  S
C1297      N1303   1.334       .  A
C1297      C1302   1.385       .  A
C1297      C1298   1.394       .  A
C1298      C1299   1.392       .  A
C1298      H1309   1.083       .  S
C1299      C1308   1.366       .  A
C1299      C1300   1.384       .  A
C1300      N1306   1.347       .  A
C1300      C1301   1.409       .  A
C1301      C1302   1.408       .  A
C1301      H1310   1.082       .  S
C1302      C1305   1.386       .  A
N1303      C1304   1.352       .  A
N1303      H1313   1.045       .  S
C1304      C1305   1.398       .  A
C1305      H1311   1.082       .  S
N1306      C1307   1.358       .  A
N1306      H1314   1.045       .  S
C1307      C1308   1.390       .  A
C1308      H1312   1.083       .  S
C1315      N1321   1.339       .  A
C1315      C1320   1.385       .  A
C1315      C1316   1.396       .  A
C1316      C1317   1.396       .  A
C1316      H1327   1.083       .  S
C1317      C1326   1.365       .  A
C1317      C1318   1.384       .  A
C1318      N1324   1.352       .  A
C1318      C1319   1.409       .  A
C1319      C1320   1.410       .  A
C1319      H1328   1.082       .  S
C1320      C1323   1.384       .  A
N1321      C1322   1.354       .  A
N1321      H1331   1.045       .  S
C1322      C1323   1.400       .  A
C1323      H1329   1.082       .  S
N1324      C1325   1.358       .  A
N1324      H1332   1.044       .  S
C1325      C1326   1.394       .  A
C1326      H1330   1.083       .  S
C1333      N1339   1.350       .  A
C1333      C1338   1.384       .  A
C1333      C1334   1.409       .  A
C1334      C1335   1.410       .  A
C1334      H1345   1.082       .  S
C1335      C1344   1.383       .  A
C1335      C1336   1.385       .  A
C1336      N1342   1.335       .  A
C1336      C1337   1.391       .  A
C1337      C1338   1.391       .  A
C1337      H1346   1.083       .  S
C1338      C1341   1.361       .  A
N1339      C1340   1.359       .  A
N1339      H1349   1.044       .  S
C1340      C1341   1.390       .  A
C1341      H1347   1.083       .  S
N1342      C1343   1.350       .  A
N1342      H1350   1.045       .  S
C1343      C1344   1.400       .  A
C1344      H1348   1.082       .  S
C1351      N1357   1.346       .  A
C1351      C1356   1.384       .  A
C1351      C1352   1.411       .  A
C1352      C1353   1.409       .  A
C1352      H1363   1.082       .  S
C1353      C1362   1.391       .  A
C1353      C1354   1.384       .  A
C1354      N1360   1.329       .  A
C1354      C1355   1.392       .  A
C1355      C1356   1.388       .  A
C1355      H1364   1.083       .  S
C1356      C1359   1.366       .  A
N1357      C1358   1.359       .  A
N1357      H1367   1.045       .  S
C1358      C1359   1.389       .  A
C1359      H1365   1.083       .  S
N1360      C1361   1.351       .  A
N1360      H1368   1.045       .  S
C1361      C1362   1.401       .  A
C1362      H1366   1.082       .  S
C1369      N1375   1.350       .  A
C1369      C1374   1.384       .  A
C1369      C1370   1.408       .  A
C1370      C1371   1.409       .  A
C1370      H1381   1.082       .  S
C1371      C1380   1.383       .  A
C1371      C1372   1.385       .  A
C1372      N1378   1.337       .  A
C1372      C1373   1.394       .  A
C1373      C1374   1.394       .  A
C1373      H1382   1.083       .  S
C1374      C1377   1.363       .  A
N1375      C1376   1.358       .  A
N1375      H1385   1.044       .  S
C1376      C1377   1.392       .  A
C1377      H1383   1.083       .  S
N1378      C1379   1.353       .  A
N1378      H1386   1.045       .  S
C1379      C1380   1.398       .  A
C1380      H1384   1.082       .  S
C1387      N1393   1.333       .  A
C1387      C1392   1.385       .  A
C1387      C1388   1.395       .  A
C1388      C1389   1.392       .  A
C1388      H1399   1.083       .  S
C1389      C1398   1.367       .  A
C1389      C1390   1.384       .  A
C1390      N1396   1.348       .  A
C1390      C1391   1.409       .  A
C1391      C1392   1.408       .  A
C1391      H1400   1.082       .  S
C1392      C1395   1.387       .  A
N1393      C1394   1.353       .  A
N1393      H1403   1.045       .  S
C1394      C1395   1.398       .  A
C1395      H1401   1.082       .  S
N1396      C1397   1.358       .  A
N1396      H1404   1.045       .  S
C1397      C1398   1.391       .  A
C1398      H1402   1.083       .  S
C1405      N1411   1.348       .  A
C1405      C1410   1.384       .  A
C1405      C1406   1.410       .  A
C1406      C1407   1.409       .  A
C1406      H1417   1.082       .  S
C1407      C1416   1.387       .  A
C1407      C1408   1.385       .  A
C1408      N1414   1.332       .  A
C1408      C1409   1.392       .  A
C1409      C1410   1.390       .  A
C1409      H1418   1.083       .  S
C1410      C1413   1.365       .  A
N1411      C1412   1.359       .  A
N1411      H1421   1.045       .  S
C1412      C1413   1.389       .  A
C1413      H1419   1.083       .  S
N1414      C1415   1.351       .  A
N1414      H1422   1.045       .  S
C1415      C1416   1.400       .  A
C1416      H1420   1.082       .  S
C1423      N1429   1.335       .  A
C1423      C1428   1.384       .  A
C1423      C1424   1.397       .  A
C1424      C1425   1.394       .  A
C1424      H1435   1.083       .  S
C1425      C1434   1.370       .  A
C1425      C1426   1.384       .  A
C1426      N1432   1.348       .  A
C1426      C1427   1.411       .  A
C1427      C1428   1.409       .  A
C1427      H1436   1.082       .  S
C1428      C1431   1.389       .  A
N1429      C1430   1.354       .  A
N1429      H1439   1.045       .  S
C1430      C1431   1.400       .  A
C1431      H1437   1.082       .  S
N1432      C1433   1.359       .  A
N1432      H1440   1.045       .  S
C1433      C1434   1.391       .  A
C1434      H1438   1.083       .  S
C1441      N1447   1.348       .  A
C1441      C1446   1.384       .  A
C1441      C1442   1.411       .  A
C1442      C1443   1.410       .  A
C1442      H1453   1.082       .  S
C1443      C1452   1.389       .  A
C1443      C1444   1.384       .  A
C1444      N1450   1.336       .  A
C1444      C1445   1.397       .  A
C1445      C1446   1.395       .  A
C1445      H1454   1.083       .  S
C1446      C1449   1.372       .  A
N1447      C1448   1.359       .  A
N1447      H1457   1.045       .  S
C1448      C1449   1.392       .  A
C1449      H1455   1.083       .  S
N1450      C1451   1.353       .  A
N1450      H1458   1.045       .  S
C1451      C1452   1.400       .  A
C1452      H1456   1.082       .  S
C1459      N1465   1.348       .  A
C1459      C1464   1.384       .  A
C1459      C1460   1.411       .  A
C1460      C1461   1.409       .  A
C1460      H1471   1.082       .  S
C1461      C1470   1.389       .  A
C1461      C1462   1.384       .  A
C1462      N1468   1.332       .  A
C1462      C1463   1.394       .  A
C1463      C1464   1.392       .  A
C1463      H1472   1.083       .  S
C1464      C1467   1.368       .  A
N1465      C1466   1.359       .  A
N1465      H1475   1.045       .  S
C1466      C1467   1.391       .  A
C1467      H1473   1.083       .  S
N1468      C1469   1.352       .  A
N1468      H1476   1.045       .  S
C1469      C1470   1.400       .  A
C1470      H1474   1.082       .  S
C1477      N1483   1.339       .  A
C1477      C1482   1.385       .  A
C1477      C1478   1.395       .  A
C1478      C1479   1.395       .  A
C1478      H1489   1.083       .  S
C1479      C1488   1.364       .  A
C1479      C1480   1.384       .  A
C1480      N1486   1.351       .  A
C1480      C1481   1.409       .  A
C1481      C1482   1.410       .  A
C1481      H1490   1.082       .  S
C1482      C1485   1.383       .  A
N1483      C1484   1.351       .  A
N1483      H1493   1.045       .  S
C1484      C1485   1.400       .  A
C1485      H1491   1.082       .  S
N1486      C1487   1.358       .  A
N1486      H1494   1.044       .  S
C1487      C1488   1.393       .  A
C1488      H1492   1.083       .  S
C1495      N1501   1.339       .  A
C1495      C1500   1.385       .  A
C1495      C1496   1.397       .  A
C1496      C1497   1.396       .  A
C1496      H1507   1.083       .  S
C1497      C1506   1.367       .  A
C1497      C1498   1.385       .  A
C1498      N1504   1.348       .  A
C1498      C1499   1.407       .  A
C1499      C1500   1.407       .  A
C1499      H1508   1.082       .  S
C1500      C1503   1.382       .  A
N1501      C1502   1.353       .  A
N1501      H1511   1.045       .  S
C1502      C1503   1.398       .  A
C1503      H1509   1.082       .  S
N1504      C1505   1.356       .  A
N1504      H1512   1.044       .  S
C1505      C1506   1.393       .  A
C1506      H1510   1.083       .  S
C1513      N1519   1.350       .  A
C1513      C1518   1.384       .  A
C1513      C1514   1.408       .  A
C1514      C1515   1.409       .  A
C1514      H1525   1.082       .  S
C1515      C1524   1.384       .  A
C1515      C1516   1.385       .  A
C1516      N1522   1.341       .  A
C1516      C1517   1.399       .  A
C1517      C1518   1.399       .  A
C1517      H1526   1.083       .  S
C1518      C1521   1.370       .  A
N1519      C1520   1.357       .  A
N1519      H1529   1.044       .  S
C1520      C1521   1.395       .  A
C1521      H1527   1.083       .  S
N1522      C1523   1.354       .  A
N1522      H1530   1.045       .  S
C1523      C1524   1.400       .  A
C1524      H1528   1.082       .  S
C1531      N1537   1.335       .  A
C1531      C1536   1.385       .  A
C1531      C1532   1.396       .  A
C1532      C1533   1.394       .  A
C1532      H1543   1.083       .  S
C1533      C1542   1.370       .  A
C1533      C1534   1.384       .  A
C1534      N1540   1.347       .  A
C1534      C1535   1.408       .  A
C1535      C1536   1.407       .  A
C1535      H1544   1.082       .  S
C1536      C1539   1.385       .  A
N1537      C1538   1.353       .  A
N1537      H1547   1.045       .  S
C1538      C1539   1.398       .  A
C1539      H1545   1.082       .  S
N1540      C1541   1.358       .  A
N1540      H1548   1.045       .  S
C1541      C1542   1.392       .  A
C1542      H1546   1.083       .  S
C1549      N1555   1.345       .  A
C1549      C1554   1.385       .  A
C1549      C1550   1.407       .  A
C1550      C1551   1.406       .  A
C1550      H1561   1.082       .  S
C1551      C1560   1.384       .  A
C1551      C1552   1.385       .  A
C1552      N1558   1.332       .  A
C1552      C1553   1.394       .  A
C1553      C1554   1.391       .  A
C1553      H1562   1.083       .  S
C1554      C1557   1.366       .  A
N1555      C1556   1.357       .  A
N1555      H1565   1.045       .  S
C1556      C1557   1.390       .  A
C1557      H1563   1.083       .  S
N1558      C1559   1.352       .  A
N1558      H1566   1.045       .  S
C1559      C1560   1.397       .  A
C1560      H1564   1.082       .  S
C1567      N1573   1.336       .  A
C1567      C1572   1.385       .  A
C1567      C1568   1.392       .  A
C1568      C1569   1.392       .  A
C1568      H1579   1.083       .  S
C1569      C1578   1.361       .  A
C1569      C1570   1.384       .  A
C1570      N1576   1.352       .  A
C1570      C1571   1.411       .  A
C1571      C1572   1.413       .  A
C1571      H1580   1.082       .  S
C1572      C1575   1.386       .  A
N1573      C1574   1.351       .  A
N1573      H1583   1.045       .  S
C1574      C1575   1.402       .  A
C1575      H1581   1.082       .  S
N1576      C1577   1.359       .  A
N1576      H1584   1.044       .  S
C1577      C1578   1.390       .  A
C1578      H1582   1.083       .  S
C1585      N1591   1.337       .  A
C1585      C1590   1.385       .  A
C1585      C1586   1.393       .  A
C1586      C1587   1.393       .  A
C1586      H1597   1.083       .  S
C1587      C1596   1.360       .  A
C1587      C1588   1.384       .  A
C1588      N1594   1.351       .  A
C1588      C1589   1.407       .  A
C1589      C1590   1.409       .  A
C1589      H1598   1.082       .  S
C1590      C1593   1.380       .  A
N1591      C1592   1.351       .  A
N1591      H1601   1.045       .  S
C1592      C1593   1.398       .  A
C1593      H1599   1.082       .  S
N1594      C1595   1.358       .  A
N1594      H1602   1.044       .  S
C1595      C1596   1.392       .  A
C1596      H1600   1.083       .  S
C1603      N1609   1.346       .  A
C1603      C1608   1.384       .  A
C1603      C1604   1.410       .  A
C1604      C1605   1.408       .  A
C1604      H1615   1.082       .  S
C1605      C1614   1.389   1_655  A
C1605      C1606   1.384   1_655  A
C1606      N1612   1.330       .  A
C1606      C1607   1.393   1_455  A
C1607      C1608   1.390       .  A
C1607      H1616   1.083   1_655  S
C1608      C1611   1.365       .  A
N1609      C1610   1.359       .  A
N1609      H1619   1.045       .  S
C1610      C1611   1.389       .  A
C1611      H1617   1.083       .  S
N1612      C1613   1.353       .  A
N1612      H1620   1.045       .  S
C1613      C1614   1.399       .  A
C1614      H1618   1.082   1_455  S
C1621      N1627   1.351       .  A
C1621      C1626   1.384       .  A
C1621      C1622   1.409       .  A
C1622      C1623   1.411       .  A
C1622      H1633   1.082       .  S
C1623      C1632   1.382       .  A
C1623      C1624   1.385       .  A
C1624      N1630   1.339       .  A
C1624      C1625   1.394       .  A
C1625      C1626   1.395       .  A
C1625      H1634   1.083       .  S
C1626      C1629   1.363       .  A
N1627      C1628   1.358       .  A
N1627      H1637   1.045       .  S
C1628      C1629   1.391       .  A
C1629      H1635   1.083       .  S
N1630      C1631   1.351       .  A
N1630      H1638   1.045       .  S
C1631      C1632   1.400       .  A
C1632      H1636   1.082       .  S
C1639      N1645   1.353   1_655  A
C1639      C1644   1.384   1_655  A
C1639      C1640   1.410       .  A
C1640      C1641   1.412       .  A
C1640      H1651   1.082       .  S
C1641      C1650   1.384       .  A
C1641      C1642   1.385       .  A
C1642      N1648   1.338       .  A
C1642      C1643   1.393       .  A
C1643      C1644   1.393   1_655  A
C1643      H1652   1.083   1_655  S
C1644      C1647   1.361       .  A
N1645      C1646   1.359       .  A
N1645      H1655   1.044   1_455  S
C1646      C1647   1.391       .  A
C1647      H1653   1.083       .  S
N1648      C1649   1.352       .  A
N1648      H1656   1.045       .  S
C1649      C1650   1.401       .  A
C1650      H1654   1.082       .  S
C1657      N1663   1.352   1_655  A
C1657      C1662   1.384       .  A
C1657      C1658   1.410       .  A
C1658      C1659   1.411       .  A
C1658      H1669   1.082       .  S
C1659      C1668   1.385       .  A
C1659      C1660   1.385       .  A
C1660      N1666   1.338       .  A
C1660      C1661   1.395       .  A
C1661      C1662   1.395       .  A
C1661      H1670   1.083   1_655  S
C1662      C1665   1.365   1_655  A
N1663      C1664   1.360       .  A
N1663      H1673   1.044   1_455  S
C1664      C1665   1.392       .  A
C1665      H1671   1.083       .  S
N1666      C1667   1.352       .  A
N1666      H1674   1.045       .  S
C1667      C1668   1.400       .  A
C1668      H1672   1.082       .  S
C1675      N1681   1.339       .  A
C1675      C1680   1.385       .  A
C1675      C1676   1.398       .  A
C1676      C1677   1.397       .  A
C1676      H1687   1.083       .  S
C1677      C1686   1.370       .  A
C1677      C1678   1.384       .  A
C1678      N1684   1.348       .  A
C1678      C1679   1.408       .  A
C1679      C1680   1.408       .  A
C1679      H1688   1.082       .  S
C1680      C1683   1.385       .  A
N1681      C1682   1.353       .  A
N1681      H1691   1.045       .  S
C1682      C1683   1.400       .  A
C1683      H1689   1.082       .  S
N1684      C1685   1.357       .  A
N1684      H1692   1.045       .  S
C1685      C1686   1.393       .  A
C1686      H1690   1.083       .  S
C1693      N1699   1.346       .  A
C1693      C1698   1.384       .  A
C1693      C1694   1.409       .  A
C1694      C1695   1.407       .  A
C1694      H1705   1.082       .  S
C1695      C1704   1.386   1_655  A
C1695      C1696   1.385   1_655  A
C1696      N1702   1.335       .  A
C1696      C1697   1.397   1_455  A
C1697      C1698   1.394       .  A
C1697      H1706   1.083   1_655  S
C1698      C1701   1.370       .  A
N1699      C1700   1.358       .  A
N1699      H1709   1.045       .  S
C1700      C1701   1.391       .  A
C1701      H1707   1.083       .  S
N1702      C1703   1.353       .  A
N1702      H1710   1.045       .  S
C1703      C1704   1.398       .  A
C1704      H1708   1.082   1_455  S
C1711      N1717   1.349       .  A
C1711      C1716   1.384       .  A
C1711      C1712   1.411       .  A
C1712      C1713   1.410       .  A
C1712      H1723   1.082       .  S
C1713      C1722   1.388       .  A
C1713      C1714   1.385       .  A
C1714      N1720   1.332       .  A
C1714      C1715   1.392       .  A
C1715      C1716   1.390       .  A
C1715      H1724   1.083       .  S
C1716      C1719   1.365       .  A
N1717      C1718   1.360       .  A
N1717      H1727   1.045       .  S
C1718      C1719   1.388       .  A
C1719      H1725   1.083       .  S
N1720      C1721   1.351       .  A
N1720      H1728   1.045       .  S
C1721      C1722   1.400       .  A
C1722      H1726   1.082       .  S
C1729      N1735   1.333       .  A
C1729      C1734   1.384       .  A
C1729      C1730   1.396       .  A
C1730      C1731   1.392       .  A
C1730      H1741   1.083       .  S
C1731      C1740   1.369       .  A
C1731      C1732   1.384       .  A
C1732      N1738   1.347       .  A
C1732      C1733   1.411       .  A
C1733      C1734   1.410       .  A
C1733      H1742   1.082       .  S
C1734      C1737   1.391       .  A
N1735      C1736   1.354       .  A
N1735      H1745   1.045       .  S
C1736      C1737   1.400       .  A
C1737      H1743   1.082       .  S
N1738      C1739   1.359       .  A
N1738      H1746   1.045       .  S
C1739      C1740   1.391       .  A
C1740      H1744   1.083       .  S
C1747      N1753   1.333       .  A
C1747      C1752   1.384   1_455  A
C1747      C1748   1.396   1_455  A
C1748      C1749   1.393       .  A
C1748      H1759   1.083   1_655  S
C1749      C1758   1.371       .  A
C1749      C1750   1.384       .  A
C1750      N1756   1.344       .  A
C1750      C1751   1.408       .  A
C1751      C1752   1.405       .  A
C1751      H1760   1.082       .  S
C1752      C1755   1.386   1_655  A
N1753      C1754   1.353       .  A
N1753      H1763   1.045       .  S
C1754      C1755   1.397       .  A
C1755      H1761   1.082   1_455  S
N1756      C1757   1.358       .  A
N1756      H1764   1.045       .  S
C1757      C1758   1.392       .  A
C1758      H1762   1.083       .  S
C1765      N1771   1.353       .  A
C1765      C1770   1.384       .  A
C1765      C1766   1.411       .  A
C1766      C1767   1.412       .  A
C1766      H1777   1.082       .  S
C1767      C1776   1.384       .  A
C1767      C1768   1.386       .  A
C1768      N1774   1.336       .  A
C1768      C1769   1.390       .  A
C1769      C1770   1.390       .  A
C1769      H1778   1.083       .  S
C1770      C1773   1.359       .  A
N1771      C1772   1.360       .  A
N1771      H1781   1.044       .  S
C1772      C1773   1.389       .  A
C1773      H1779   1.083       .  S
N1774      C1775   1.349       .  A
N1774      H1782   1.045       .  S
C1775      C1776   1.401       .  A
C1776      H1780   1.082       .  S
C1783      N1789   1.350   1_655  A
C1783      C1788   1.384   1_655  A
C1783      C1784   1.409       .  A
C1784      C1785   1.409       .  A
C1784      H1795   1.082       .  S
C1785      C1794   1.384       .  A
C1785      C1786   1.385       .  A
C1786      N1792   1.339       .  A
C1786      C1787   1.398       .  A
C1787      C1788   1.397   1_655  A
C1787      H1796   1.083   1_655  S
C1788      C1791   1.369       .  A
N1789      C1790   1.357       .  A
N1789      H1799   1.044   1_455  S
C1790      C1791   1.394       .  A
C1791      H1797   1.083       .  S
N1792      C1793   1.353       .  A
N1792      H1800   1.045       .  S
C1793      C1794   1.400       .  A
C1794      H1798   1.082       .  S
C1801      N1807   1.353       .  A
C1801      C1806   1.384       .  A
C1801      C1802   1.410       .  A
C1802      C1803   1.411       .  A
C1802      H1813   1.082       .  S
C1803      C1812   1.384       .  A
C1803      C1804   1.385       .  A
C1804      N1810   1.338       .  A
C1804      C1805   1.393       .  A
C1805      C1806   1.393       .  A
C1805      H1814   1.083       .  S
C1806      C1809   1.361       .  A
N1807      C1808   1.359       .  A
N1807      H1817   1.044       .  S
C1808      C1809   1.391       .  A
C1809      H1815   1.083       .  S
N1810      C1811   1.351       .  A
N1810      H1818   1.045       .  S
C1811      C1812   1.400       .  A
C1812      H1816   1.082       .  S
C1819      N1825   1.351   1_655  A
C1819      C1824   1.384   1_655  A
C1819      C1820   1.408       .  A
C1820      C1821   1.409       .  A
C1820      H1831   1.082       .  S
C1821      C1830   1.383       .  A
C1821      C1822   1.385       .  A
C1822      N1828   1.337       .  A
C1822      C1823   1.395       .  A
C1823      C1824   1.395   1_655  A
C1823      H1832   1.083   1_655  S
C1824      C1827   1.364       .  A
N1825      C1826   1.358       .  A
N1825      H1835   1.044   1_455  S
C1826      C1827   1.393       .  A
C1827      H1833   1.083       .  S
N1828      C1829   1.353       .  A
N1828      H1836   1.045       .  S
C1829      C1830   1.399       .  A
C1830      H1834   1.082       .  S
C1837      N1843   1.336       .  A
C1837      C1842   1.386       .  A
C1837      C1838   1.392       .  A
C1838      C1839   1.393       .  A
C1838      H1849   1.083       .  S
C1839      C1848   1.361       .  A
C1839      C1840   1.385       .  A
C1840      N1846   1.350       .  A
C1840      C1841   1.407       .  A
C1841      C1842   1.408       .  A
C1841      H1850   1.082       .  S
C1842      C1845   1.380       .  A
N1843      C1844   1.351       .  A
N1843      H1853   1.045       .  S
C1844      C1845   1.397       .  A
C1845      H1851   1.082       .  S
N1846      C1847   1.358       .  A
N1846      H1854   1.044       .  S
C1847      C1848   1.391       .  A
C1848      H1852   1.083       .  S
C1855      N1861   1.336       .  A
C1855      C1860   1.385       .  A
C1855      C1856   1.393       .  A
C1856      C1857   1.393   1_655  A
C1856      H1867   1.083   1_655  S
C1857      C1866   1.363       .  A
C1857      C1858   1.384   1_455  A
C1858      N1864   1.351   1_655  A
C1858      C1859   1.409       .  A
C1859      C1860   1.410       .  A
C1859      H1868   1.082       .  S
C1860      C1863   1.384       .  A
N1861      C1862   1.352       .  A
N1861      H1871   1.045       .  S
C1862      C1863   1.399       .  A
C1863      H1869   1.082       .  S
N1864      C1865   1.358       .  A
N1864      H1872   1.044   1_455  S
C1865      C1866   1.392       .  A
C1866      H1870   1.083       .  S
C1873      N1879   1.335       .  A
C1873      C1878   1.385       .  A
C1873      C1874   1.399       .  A
C1874      C1875   1.396       .  A
C1874      H1885   1.083       .  S
C1875      C1884   1.372       .  A
C1875      C1876   1.385       .  A
C1876      N1882   1.344       .  A
C1876      C1877   1.406       .  A
C1877      C1878   1.405       .  A
C1877      H1886   1.082       .  S
C1878      C1881   1.385       .  A
N1879      C1880   1.355       .  A
N1879      H1889   1.045       .  S
C1880      C1881   1.396       .  A
C1881      H1887   1.082       .  S
N1882      C1883   1.356       .  A
N1882      H1890   1.045       .  S
C1883      C1884   1.393       .  A
C1884      H1888   1.083       .  S
C1891      N1897   1.335       .  A
C1891      C1896   1.385       .  A
C1891      C1892   1.396       .  A
C1892      C1893   1.394       .  A
C1892      H1903   1.083       .  S
C1893      C1902   1.367       .  A
C1893      C1894   1.385       .  A
C1894      N1900   1.345       .  A
C1894      C1895   1.406       .  A
C1895      C1896   1.405       .  A
C1895      H1904   1.082       .  S
C1896      C1899   1.384       .  A
N1897      C1898   1.354       .  A
N1897      H1907   1.045       .  S
C1898      C1899   1.396       .  A
C1899      H1905   1.082       .  S
N1900      C1901   1.356       .  A
N1900      H1908   1.045       .  S
C1901      C1902   1.391       .  A
C1902      H1906   1.083       .  S
C1909      N1915   1.335       .  A
C1909      C1914   1.385       .  A
C1909      C1910   1.391       .  A
C1910      C1911   1.391       .  A
C1910      H1921   1.083       .  S
C1911      C1920   1.361       .  A
C1911      C1912   1.384       .  A
C1912      N1918   1.350       .  A
C1912      C1913   1.409       .  A
C1913      C1914   1.410       .  A
C1913      H1922   1.082       .  S
C1914      C1917   1.383       .  A
N1915      C1916   1.350       .  A
N1915      H1925   1.045       .  S
C1916      C1917   1.400       .  A
C1917      H1923   1.082       .  S
N1918      C1919   1.358       .  A
N1918      H1926   1.044       .  S
C1919      C1920   1.390       .  A
C1920      H1924   1.083       .  S
C1927      N1933   1.349       .  A
C1927      C1932   1.383       .  A
C1927      C1928   1.414       .  A
C1928      C1929   1.412       .  A
C1928      H1939   1.082       .  S
C1929      C1938   1.393       .  A
C1929      C1930   1.384       .  A
C1930      N1936   1.332       .  A
C1930      C1931   1.394       .  A
C1931      C1932   1.390       .  A
C1931      H1940   1.083       .  S
C1932      C1935   1.368       .  A
N1933      C1934   1.361       .  A
N1933      H1943   1.045       .  S
C1934      C1935   1.389       .  A
C1935      H1941   1.083       .  S
N1936      C1937   1.353       .  A
N1936      H1944   1.045       .  S
C1937      C1938   1.402       .  A
C1938      H1942   1.082       .  S
C1945      N1951   1.351       .  A
C1945      C1950   1.384       .  A
C1945      C1946   1.409       .  A
C1946      C1947   1.410       .  A
C1946      H1957   1.082       .  S
C1947      C1956   1.383       .  A
C1947      C1948   1.385       .  A
C1948      N1954   1.336       .  A
C1948      C1949   1.392       .  A
C1949      C1950   1.393       .  A
C1949      H1958   1.083       .  S
C1950      C1953   1.362       .  A
N1951      C1952   1.359       .  A
N1951      H1961   1.044       .  S
C1952      C1953   1.391       .  A
C1953      H1959   1.083       .  S
N1954      C1955   1.351       .  A
N1954      H1962   1.045       .  S
C1955      C1956   1.399       .  A
C1956      H1960   1.082       .  S
C1963      N1969   1.334       .  A
C1963      C1968   1.384       .  A
C1963      C1964   1.397       .  A
C1964      C1965   1.394       .  A
C1964      H1975   1.083       .  S
C1965      C1974   1.370       .  A
C1965      C1966   1.384       .  A
C1966      N1972   1.349       .  A
C1966      C1967   1.411       .  A
C1967      C1968   1.410       .  A
C1967      H1976   1.082       .  S
C1968      C1971   1.389       .  A
N1969      C1970   1.354       .  A
N1969      H1979   1.045       .  S
C1970      C1971   1.399       .  A
C1971      H1977   1.082       .  S
N1972      C1973   1.360       .  A
N1972      H1980   1.045       .  S
C1973      C1974   1.392       .  A
C1974      H1978   1.083       .  S
C1981      N1987   1.333       .  A
C1981      C1986   1.384       .  A
C1981      C1982   1.396       .  A
C1982      C1983   1.392       .  A
C1982      H1993   1.083       .  S
C1983      C1992   1.371       .  A
C1983      C1984   1.383       .  A
C1984      N1990   1.349       .  A
C1984      C1985   1.414       .  A
C1985      C1986   1.412       .  A
C1985      H1994   1.082       .  S
C1986      C1989   1.394       .  A
N1987      C1988   1.353       .  A
N1987      H1997   1.045       .  S
C1988      C1989   1.403       .  A
C1989      H1995   1.082       .  S
N1990      C1991   1.361       .  A
N1990      H1998   1.045       .  S
C1991      C1992   1.390       .  A
C1992      H1996   1.083       .  S
C1999      N2005   1.336       .  A
C1999      C2004   1.384       .  A
C1999      C2000   1.399       .  A
C2000      C2001   1.396       .  A
C2000      H2011   1.083       .  S
C2001      C2010   1.373       .  A
C2001      C2002   1.384       .  A
C2002      N2008   1.347       .  A
C2002      C2003   1.411       .  A
C2003      C2004   1.409       .  A
C2003      H2012   1.082       .  S
C2004      C2007   1.390       .  A
N2005      C2006   1.355       .  A
N2005      H2015   1.045       .  S
C2006      C2007   1.400       .  A
C2007      H2013   1.082       .  S
N2008      C2009   1.359       .  A
N2008      H2016   1.045       .  S
C2009      C2010   1.393       .  A
C2010      H2014   1.083       .  S
C2017      N2023   1.334       .  A
C2017      C2022   1.385       .  A
C2017      C2018   1.396       .  A
C2018      C2019   1.393       .  A
C2018      H2029   1.083       .  S
C2019      C2028   1.370       .  A
C2019      C2020   1.384       .  A
C2020      N2026   1.347       .  A
C2020      C2021   1.410       .  A
C2021      C2022   1.408       .  A
C2021      H2030   1.082       .  S
C2022      C2025   1.388       .  A
N2023      C2024   1.352       .  A
N2023      H2033   1.045       .  S
C2024      C2025   1.399       .  A
C2025      H2031   1.082       .  S
N2026      C2027   1.359       .  A
N2026      H2034   1.045       .  S
C2027      C2028   1.391       .  A
C2028      H2032   1.083       .  S
C2035      N2041   1.349       .  A
C2035      C2040   1.384       .  A
C2035      C2036   1.410       .  A
C2036      C2037   1.409       .  A
C2036      H2047   1.082       .  S
C2037      C2046   1.387       .  A
C2037      C2038   1.385       .  A
C2038      N2044   1.335       .  A
C2038      C2039   1.395       .  A
C2039      C2040   1.393       .  A
C2039      H2048   1.083       .  S
C2040      C2043   1.367       .  A
N2041      C2042   1.359       .  A
N2041      H2051   1.045       .  S
C2042      C2043   1.391       .  A
C2043      H2049   1.083       .  S
N2044      C2045   1.353       .  A
N2044      H2052   1.045       .  S
C2045      C2046   1.399       .  A
C2046      H2050   1.082       .  S
C2053      N2059   1.352       .  A
C2053      C2058   1.384       .  A
C2053      C2054   1.409       .  A
C2054      C2055   1.410       .  A
C2054      H2065   1.082       .  S
C2055      C2064   1.381       .  A
C2055      C2056   1.386       .  A
C2056      N2062   1.337       .  A
C2056      C2057   1.391       .  A
C2057      C2058   1.392       .  A
C2057      H2066   1.083       .  S
C2058      C2061   1.359       .  A
N2059      C2060   1.359       .  A
N2059      H2069   1.044       .  S
C2060      C2061   1.392       .  A
C2061      H2067   1.083       .  S
N2062      C2063   1.350       .  A
N2062      H2070   1.045       .  S
C2063      C2064   1.400       .  A
C2064      H2068   1.082       .  S
C2071      N2077   1.338       .  A
C2071      C2076   1.385       .  A
C2071      C2072   1.393       .  A
C2072      C2073   1.393       .  A
C2072      H2083   1.083       .  S
C2073      C2082   1.361       .  A
C2073      C2074   1.384       .  A
C2074      N2080   1.353       .  A
C2074      C2075   1.410       .  A
C2075      C2076   1.412       .  A
C2075      H2084   1.082       .  S
C2076      C2079   1.384       .  A
N2077      C2078   1.351       .  A
N2077      H2087   1.045       .  S
C2078      C2079   1.401       .  A
C2079      H2085   1.082       .  S
N2080      C2081   1.359       .  A
N2080      H2088   1.044       .  S
C2081      C2082   1.392       .  A
C2082      H2086   1.083       .  S
C2089      N2095   1.351       .  A
C2089      C2094   1.384       .  A
C2089      C2090   1.409       .  A
C2090      C2091   1.411       .  A
C2090      H2101   1.082       .  S
C2091      C2100   1.385       .  A
C2091      C2092   1.385       .  A
C2092      N2098   1.338       .  A
C2092      C2093   1.395       .  A
C2093      C2094   1.395       .  A
C2093      H2102   1.083       .  S
C2094      C2097   1.364       .  A
N2095      C2096   1.358       .  A
N2095      H2105   1.044       .  S
C2096      C2097   1.392       .  A
C2097      H2103   1.083       .  S
N2098      C2099   1.353       .  A
N2098      H2106   1.045       .  S
C2099      C2100   1.400       .  A
C2100      H2104   1.082       .  S
C2107      N2113   1.348       .  A
C2107      C2112   1.383       .  A
C2107      C2108   1.413       .  A
C2108      C2109   1.411       .  A
C2108      H2119   1.082       .  S
C2109      C2118   1.393       .  A
C2109      C2110   1.384       .  A
C2110      N2116   1.331       .  A
C2110      C2111   1.395       .  A
C2111      C2112   1.391       .  A
C2111      H2120   1.083       .  S
C2112      C2115   1.370       .  A
N2113      C2114   1.360       .  A
N2113      H2123   1.045       .  S
C2114      C2115   1.390       .  A
C2115      H2121   1.083       .  S
N2116      C2117   1.354       .  A
N2116      H2124   1.045       .  S
C2117      C2118   1.402       .  A
C2118      H2122   1.082       .  S
C2125      N2131   1.335       .  A
C2125      C2130   1.385       .  A
C2125      C2126   1.392       .  A
C2126      C2127   1.392       .  A
C2126      H2137   1.083       .  S
C2127      C2136   1.362       .  A
C2127      C2128   1.384       .  A
C2128      N2134   1.350   1_655  A
C2128      C2129   1.409       .  A
C2129      C2130   1.410       .  A
C2129      H2138   1.082   1_655  S
C2130      C2133   1.384       .  A
N2131      C2132   1.350       .  A
N2131      H2141   1.045       .  S
C2132      C2133   1.399       .  A
C2133      H2139   1.082       .  S
N2134      C2135   1.359       .  A
N2134      H2142   1.044       .  S
C2135      C2136   1.390   1_455  A
C2136      H2140   1.083       .  S
C2143      N2149   1.337       .  A
C2143      C2148   1.384       .  A
C2143      C2144   1.401       .  A
C2144      C2145   1.398       .  A
C2144      H2155   1.083       .  S
C2145      C2154   1.376       .  A
C2145      C2146   1.384       .  A
C2146      N2152   1.347       .  A
C2146      C2147   1.410       .  A
C2147      C2148   1.408       .  A
C2147      H2156   1.082   1_655  S
C2148      C2151   1.389   1_655  A
N2149      C2150   1.356   1_655  A
N2149      H2159   1.045       .  S
C2150      C2151   1.399       .  A
C2151      H2157   1.082       .  S
N2152      C2153   1.359       .  A
N2152      H2160   1.045       .  S
C2153      C2154   1.394       .  A
C2154      H2158   1.083       .  S
C2161      N2167   1.349       .  A
C2161      C2166   1.385       .  A
C2161      C2162   1.406       .  A
C2162      C2163   1.407       .  A
C2162      H2173   1.082       .  S
C2163      C2172   1.380       .  A
C2163      C2164   1.385       .  A
C2164      N2170   1.337       .  A
C2164      C2165   1.394       .  A
C2165      C2166   1.394       .  A
C2165      H2174   1.083       .  S
C2166      C2169   1.363       .  A
N2167      C2168   1.356       .  A
N2167      H2177   1.044       .  S
C2168      C2169   1.392       .  A
C2169      H2175   1.083       .  S
N2170      C2171   1.351       .  A
N2170      H2178   1.045       .  S
C2171      C2172   1.397       .  A
C2172      H2176   1.082       .  S
C2179      N2185   1.350       .  A
C2179      C2184   1.384       .  A
C2179      C2180   1.409       .  A
C2180      C2181   1.410       .  A
C2180      H2191   1.082       .  S
C2181      C2190   1.385       .  A
C2181      C2182   1.385       .  A
C2182      N2188   1.336       .  A
C2182      C2183   1.393       .  A
C2183      C2184   1.393       .  A
C2183      H2192   1.083       .  S
C2184      C2187   1.363       .  A
N2185      C2186   1.358       .  A
N2185      H2195   1.044       .  S
C2186      C2187   1.392       .  A
C2187      H2193   1.083       .  S
N2188      C2189   1.352       .  A
N2188      H2196   1.045       .  S
C2189      C2190   1.400       .  A
C2190      H2194   1.082       .  S
C2197      N2203   1.352       .  A
C2197      C2202   1.384       .  A
C2197      C2198   1.410       .  A
C2198      C2199   1.411       .  A
C2198      H2209   1.082       .  S
C2199      C2208   1.385       .  A
C2199      C2200   1.385       .  A
C2200      N2206   1.337       .  A
C2200      C2201   1.394       .  A
C2201      C2202   1.394       .  A
C2201      H2210   1.083       .  S
C2202      C2205   1.363       .  A
N2203      C2204   1.359       .  A
N2203      H2213   1.044       .  S
C2204      C2205   1.393       .  A
C2205      H2211   1.083       .  S
N2206      C2207   1.352       .  A
N2206      H2214   1.045       .  S
C2207      C2208   1.400       .  A
C2208      H2212   1.082       .  S
C2215      N2221   1.350       .  A
C2215      C2220   1.384       .  A
C2215      C2216   1.409       .  A
C2216      C2217   1.410       .  A
C2216      H2227   1.082       .  S
C2217      C2226   1.383       .  A
C2217      C2218   1.385       .  A
C2218      N2224   1.335       .  A
C2218      C2219   1.391       .  A
C2219      C2220   1.390       .  A
C2219      H2228   1.083       .  S
C2220      C2223   1.360       .  A
N2221      C2222   1.358       .  A
N2221      H2231   1.045       .  S
C2222      C2223   1.389       .  A
C2223      H2229   1.083       .  S
N2224      C2225   1.351       .  A
N2224      H2232   1.045       .  S
C2225      C2226   1.399       .  A
C2226      H2230   1.082       .  S
C2233      N2239   1.335       .  A
C2233      C2238   1.384       .  A
C2233      C2234   1.397       .  A
C2234      C2235   1.394       .  A
C2234      H2245   1.083       .  S
C2235      C2244   1.371       .  A
C2235      C2236   1.384       .  A
C2236      N2242   1.349       .  A
C2236      C2237   1.412       .  A
C2237      C2238   1.411       .  A
C2237      H2246   1.082       .  S
C2238      C2241   1.391       .  A
N2239      C2240   1.354       .  A
N2239      H2249   1.045       .  S
C2240      C2241   1.401       .  A
C2241      H2247   1.082       .  S
N2242      C2243   1.360       .  A
N2242      H2250   1.045       .  S
C2243      C2244   1.392       .  A
C2244      H2248   1.083       .  S
C2251      N2257   1.336       .  A
C2251      C2256   1.384       .  A
C2251      C2252   1.398       .  A
C2252      C2253   1.395       .  A
C2252      H2263   1.083       .  S
C2253      C2262   1.372       .  A
C2253      C2254   1.383       .  A
C2254      N2260   1.349       .  A
C2254      C2255   1.412       .  A
C2255      C2256   1.411       .  A
C2255      H2264   1.082       .  S
C2256      C2259   1.391       .  A
N2257      C2258   1.354       .  A
N2257      H2267   1.045       .  S
C2258      C2259   1.401       .  A
C2259      H2265   1.082       .  S
N2260      C2261   1.360       .  A
N2260      H2268   1.045       .  S
C2261      C2262   1.392       .  A
C2262      H2266   1.083       .  S
C2269      N2275   1.336       .  A
C2269      C2274   1.385       .  A
C2269      C2270   1.395       .  A
C2270      C2271   1.393       .  A
C2270      H2281   1.083       .  S
C2271      C2280   1.365       .  A
C2271      C2272   1.385       .  A
C2272      N2278   1.347       .  A
C2272      C2273   1.407       .  A
C2273      C2274   1.407       .  A
C2273      H2282   1.082       .  S
C2274      C2277   1.383       .  A
N2275      C2276   1.353       .  A
N2275      H2285   1.045       .  S
C2276      C2277   1.397       .  A
C2277      H2283   1.082       .  S
N2278      C2279   1.357       .  A
N2278      H2286   1.045       .  S
C2279      C2280   1.391       .  A
C2280      H2284   1.083       .  S
C2287      N2293   1.339       .  A
C2287      C2292   1.384       .  A
C2287      C2288   1.396       .  A
C2288      C2289   1.396       .  A
C2288      H2299   1.083       .  S
C2289      C2298   1.366       .  A
C2289      C2290   1.384       .  A
C2290      N2296   1.352       .  A
C2290      C2291   1.411       .  A
C2291      C2292   1.413       .  A
C2291      H2300   1.082       .  S
C2292      C2295   1.387       .  A
N2293      C2294   1.353       .  A
N2293      H2303   1.045       .  S
C2294      C2295   1.402       .  A
C2295      H2301   1.082       .  S
N2296      C2297   1.360       .  A
N2296      H2304   1.044       .  S
C2297      C2298   1.393       .  A
C2298      H2302   1.083       .  S
C2305      N2311   1.350       .  A
C2305      C2310   1.385       .  A
C2305      C2306   1.408       .  A
C2306      C2307   1.409       .  A
C2306      H2317   1.082       .  S
C2307      C2316   1.383       .  A
C2307      C2308   1.385       .  A
C2308      N2314   1.336       .  A
C2308      C2309   1.393       .  A
C2309      C2310   1.393       .  A
C2309      H2318   1.083       .  S
C2310      C2313   1.362       .  A
N2311      C2312   1.358       .  A
N2311      H2321   1.044       .  S
C2312      C2313   1.392       .  A
C2313      H2319   1.083       .  S
N2314      C2315   1.351       .  A
N2314      H2322   1.045       .  S
C2315      C2316   1.399       .  A
C2316      H2320   1.082       .  S
C2323      N2329   1.348       .  A
C2323      C2328   1.385       .  A
C2323      C2324   1.405       .  A
C2324      C2325   1.406       .  A
C2324      H2335   1.082       .  S
C2325      C2334   1.380       .  A
C2325      C2326   1.385       .  A
C2326      N2332   1.337       .  A
C2326      C2327   1.395       .  A
C2327      C2328   1.395       .  A
C2327      H2336   1.083       .  S
C2328      C2331   1.364       .  A
N2329      C2330   1.356       .  A
N2329      H2339   1.044       .  S
C2330      C2331   1.393       .  A
C2331      H2337   1.083       .  S
N2332      C2333   1.353       .  A
N2332      H2340   1.045       .  S
C2333      C2334   1.397       .  A
C2334      H2338   1.082       .  S
C2341      N2347   1.351   1_655  A
C2341      C2346   1.384       .  A
C2341      C2342   1.409       .  A
C2342      C2343   1.409       .  A
C2342      H2353   1.082   1_655  S
C2343      C2352   1.383       .  A
C2343      C2344   1.385       .  A
C2344      N2350   1.336       .  A
C2344      C2345   1.393       .  A
C2345      C2346   1.393       .  A
C2345      H2354   1.083       .  S
C2346      C2349   1.362       .  A
N2347      C2348   1.358       .  A
N2347      H2357   1.044       .  S
C2348      C2349   1.391   1_455  A
C2349      H2355   1.083       .  S
N2350      C2351   1.351       .  A
N2350      H2358   1.045       .  S
C2351      C2352   1.399       .  A
C2352      H2356   1.082       .  S
C2359      N2365   1.333       .  A
C2359      C2364   1.384       .  A
C2359      C2360   1.394       .  A
C2360      C2361   1.391       .  A
C2360      H2371   1.083       .  S
C2361      C2370   1.366       .  A
C2361      C2362   1.384       .  A
C2362      N2368   1.348       .  A
C2362      C2363   1.410       .  A
C2363      C2364   1.409       .  A
C2363      H2372   1.082   1_655  S
C2364      C2367   1.389   1_655  A
N2365      C2366   1.353   1_655  A
N2365      H2375   1.045       .  S
C2366      C2367   1.399       .  A
C2367      H2373   1.082       .  S
N2368      C2369   1.359       .  A
N2368      H2376   1.045       .  S
C2369      C2370   1.390       .  A
C2370      H2374   1.083       .  S
C2377      N2383   1.350       .  A
C2377      C2382   1.384       .  A
C2377      C2378   1.408       .  A
C2378      C2379   1.409       .  A
C2378      H2389   1.082       .  S
C2379      C2388   1.381       .  A
C2379      C2380   1.386       .  A
C2380      N2386   1.335       .  A
C2380      C2381   1.390       .  A
C2381      C2382   1.391       .  A
C2381      H2390   1.083       .  S
C2382      C2385   1.359       .  A
N2383      C2384   1.358       .  A
N2383      H2393   1.044       .  S
C2384      C2385   1.390       .  A
C2385      H2391   1.083       .  S
N2386      C2387   1.349       .  A
N2386      H2394   1.045       .  S
C2387      C2388   1.399       .  A
C2388      H2392   1.082       .  S
C2395      N2401   1.350       .  A
C2395      C2400   1.384       .  A
C2395      C2396   1.408       .  A
C2396      C2397   1.409       .  A
C2396      H2407   1.082       .  S
C2397      C2406   1.383       .  A
C2397      C2398   1.385       .  A
C2398      N2404   1.335       .  A
C2398      C2399   1.393       .  A
C2399      C2400   1.392       .  A
C2399      H2408   1.083       .  S
C2400      C2403   1.361       .  A
N2401      C2402   1.357       .  A
N2401      H2411   1.044       .  S
C2402      C2403   1.391       .  A
C2403      H2409   1.083       .  S
N2404      C2405   1.352       .  A
N2404      H2412   1.045       .  S
C2405      C2406   1.399       .  A
C2406      H2410   1.082       .  S
C2413      N2419   1.338       .  A
C2413      C2418   1.384       .  A
C2413      C2414   1.400       .  A
C2414      C2415   1.398       .  A
C2414      H2425   1.083       .  S
C2415      C2424   1.374       .  A
C2415      C2416   1.384       .  A
C2416      N2422   1.348       .  A
C2416      C2417   1.410       .  A
C2417      C2418   1.409       .  A
C2417      H2426   1.082       .  S
C2418      C2421   1.389       .  A
N2419      C2420   1.356       .  A
N2419      H2429   1.045       .  S
C2420      C2421   1.399       .  A
C2421      H2427   1.082       .  S
N2422      C2423   1.358       .  A
N2422      H2430   1.044       .  S
C2423      C2424   1.394       .  A
C2424      H2428   1.083       .  S
C2431      N2437   1.350       .  A
C2431      C2436   1.385       .  A
C2431      C2432   1.408       .  A
C2432      C2433   1.408       .  A
C2432      H2443   1.082       .  S
C2433      C2442   1.382       .  A
C2433      C2434   1.385       .  A
C2434      N2440   1.338       .  A
C2434      C2435   1.395       .  A
C2435      C2436   1.395       .  A
C2435      H2444   1.083       .  S
C2436      C2439   1.365       .  A
N2437      C2438   1.358       .  A
N2437      H2447   1.045       .  S
C2438      C2439   1.392       .  A
C2439      H2445   1.083       .  S
N2440      C2441   1.352       .  A
N2440      H2448   1.045       .  S
C2441      C2442   1.398       .  A
C2442      H2446   1.082       .  S
