geometry optimzed in LAMMPS
_audit_creation_date              2020-11-30 
_audit_creation_method            'lammps2cif' 
_symmetry_space_group_name_H-M    'P1' 
_symmetry_Int_Tables_number       1 
_symmetry_cell_setting            triclinic 
loop_ 
_symmetry_equiv_pos_as_xyz 
  x,y,z 
_cell_length_a                    81.14483644 
_cell_length_b                    81.43688789559464 
_cell_length_c                    81.26425713092551 
_cell_angle_alpha                 89.97015443899257 
_cell_angle_beta                  90.18729787024915 
_cell_angle_gamma                 90.04734707472285 
loop_ 
_atom_site_label 
_atom_site_type_symbol 
_atom_site_fract_x 
_atom_site_fract_y 
_atom_site_fract_z 
_atom_site_charge 
O1          O  0.79538596  0.40509643  0.71236705    -0.57500
C2          C  0.82497669  0.39259057  0.67405054     0.75100
O3          O  0.83894665  0.43745172  0.70412382    -0.58600
C4          C  0.79641959  0.41149956  0.72653510     0.75100
C5          C  0.84810753  0.39357133  0.72442236     0.77500
Cd6        Cd  0.82429638  0.41107592  0.70448464     1.37500
O7          O  0.81217416  0.39331126  0.68286470    -0.57500
O8          O  0.83419370  0.38761001  0.72068693    -0.56300
C9          C  0.82781656  0.44558630  0.69686535     0.77500
O10         O  0.85124186  0.40770333  0.71873732    -0.58700
O11         O  0.83717678  0.40096636  0.67893955    -0.57100
O12         O  0.81018516  0.41778068  0.73029322    -0.57100
O13         O  0.81516444  0.43760722  0.69244391    -0.56300
O14         O  0.90455277  0.30089074  0.82600209    -0.57500
C15         C  0.92612704  0.28753529  0.78081839     0.75100
O16         O  0.91307075  0.33923094  0.78813999    -0.58600
C17         C  0.90120687  0.31431171  0.83317096     0.75100
C18         C  0.95421802  0.31945976  0.81343729     0.77500
Cd19       Cd  0.92061406  0.31390917  0.80354771     1.37500
O20         O  0.91689624  0.28552852  0.79323686    -0.57500
O21         O  0.94590032  0.30734015  0.81856465    -0.56300
C22         C  0.89959996  0.33340106  0.78271101     0.77500
O23         O  0.94663347  0.32973779  0.80445404    -0.58700
O24         O  0.93295984  0.30141396  0.77940382    -0.57100
O25         O  0.90762772  0.32714171  0.82714674    -0.57100
O26         O  0.89613056  0.31889261  0.78702833    -0.56300
O27         O  0.68773746  0.39354106  0.81106912    -0.57500
C28         C  0.73214479  0.41489771  0.80076947     0.75100
O29         O  0.70484838  0.43790361  0.84115939    -0.58600
C30         C  0.67808018  0.39111987  0.82303694     0.75100
C31         C  0.72607795  0.39250451  0.84948972     0.77500
Cd32       Cd  0.70728678  0.41148432  0.82600028     1.37500
O33         O  0.71822816  0.40855903  0.79756004    -0.57500
O34         O  0.72449871  0.38837616  0.83456990    -0.56300
C35         C  0.69710677  0.44539643  0.82987659     0.77500
O36         O  0.71879917  0.40558318  0.85379131    -0.58700
O37         O  0.73421937  0.41996684  0.81534159    -0.57100
O38         O  0.68163671  0.39851341  0.83627721    -0.57100
O39         O  0.69342786  0.43698963  0.81730021    -0.56300
O40         O  0.82299111  0.29258294  0.90499665    -0.57500
C41         C  0.77864098  0.27984941  0.92183914     0.75100
O42         O  0.80143435  0.32320735  0.94683669    -0.58600
C43         C  0.83160907  0.30509590  0.90168329     0.75100
C44         C  0.78192250  0.32864937  0.89941721     0.77500
Cd45       Cd  0.80119536  0.30718747  0.92033417     1.37500
O46         O  0.79322685  0.27807761  0.91667474    -0.57500
O47         O  0.78688278  0.31464364  0.89493597    -0.56300
C48         C  0.80816527  0.31191433  0.95521287     0.77500
O49         O  0.78598817  0.33308580  0.91382795    -0.58700
O50         O  0.77466548  0.29414449  0.92641671    -0.57100
O51         O  0.82671694  0.31854883  0.90777957    -0.57100
O52         O  0.81247285  0.29929330  0.94726711    -0.56300
O53         O  0.60168925  0.31822510  0.81902214    -0.57500
C54         C  0.58002458  0.27443489  0.80575967     0.75100
O55         O  0.58708389  0.28532425  0.85978799    -0.58600
C56         C  0.60454687  0.32636776  0.83198914     0.75100
C57         C  0.54855255  0.30698424  0.83678748     0.77500
Cd58       Cd  0.58283795  0.29784096  0.83227173     1.37500
O59         O  0.58645912  0.28841413  0.80324672    -0.57500
O60         O  0.55598876  0.30979590  0.82341153    -0.56300
C61         C  0.59905409  0.27633282  0.85551828     0.77500
O62         O  0.55715696  0.30077335  0.84819093    -0.58700
O63         O  0.57481168  0.27174059  0.82015723    -0.57100
O64         O  0.59688583  0.32176078  0.84469694    -0.57100
O65         O  0.60369219  0.27765918  0.84072763    -0.56300
O66         O  0.68985815  0.17247950  0.90947510    -0.57500
C67         C  0.70306224  0.21751987  0.92815133     0.75100
O68         O  0.65043224  0.20897414  0.91990480    -0.58600
C69         C  0.67690643  0.16403021  0.90733253     0.75100
C70         C  0.67303751  0.18592174  0.96078208     0.77500
Cd71       Cd  0.67662582  0.19400521  0.92622417     1.37500
O72         O  0.70575952  0.20310231  0.92294574    -0.57500
O73         O  0.68494620  0.18077989  0.95220387    -0.56300
C74         C  0.65463868  0.21249262  0.90528982     0.77500
O75         O  0.66208823  0.19404595  0.95316708    -0.58700
O76         O  0.68845498  0.22066592  0.93246169    -0.57100
O77         O  0.66411188  0.16894460  0.91473738    -0.57100
O78         O  0.66860844  0.20740843  0.90072007    -0.56300
O79         O  0.80781287  0.31300075  0.60236439    -0.57500
C80         C  0.79772749  0.26906969  0.58350209     0.75100
O81         O  0.84234237  0.29234867  0.56386703    -0.58600
C82         C  0.81975522  0.32206995  0.60659494     0.75100
C83         C  0.84431980  0.27214670  0.61054477     0.77500
Cd84       Cd  0.82436947  0.29191500  0.58849663     1.37500
O85         O  0.79585452  0.28194160  0.59200373    -0.57500
O86         O  0.82961331  0.27617638  0.61357139    -0.56300
C87         C  0.83226869  0.30002337  0.55474124     0.77500
O88         O  0.85032421  0.27767330  0.59726809    -0.58700
O89         O  0.81173087  0.26706782  0.57702869    -0.57100
O90         O  0.83388120  0.31768725  0.60166115    -0.57100
O91         O  0.81913004  0.30484583  0.56154526    -0.56300
O92         O  0.90908038  0.17032257  0.70050090    -0.57500
C93         C  0.92152450  0.21582518  0.71437435     0.75100
O94         O  0.94736202  0.19450879  0.67015251    -0.58600
C95         C  0.90395159  0.16318193  0.68765593     0.75100
C96         C  0.90374991  0.21343601  0.66259875     0.77500
Cd97       Cd  0.92182950  0.19402431  0.68634055     1.37500
O98         O  0.91295305  0.20285331  0.71397303    -0.57500
O99         O  0.89789284  0.20992669  0.67657863    -0.56300
C100        C  0.95658266  0.18829714  0.68105771     0.77500
O101        O  0.91794705  0.20784216  0.65952120    -0.58700
O102        O  0.93021938  0.21871028  0.70181660    -0.57100
O103        O  0.90813739  0.16962042  0.67412939    -0.57100
O104        O  0.94956200  0.18376546  0.69418708    -0.56300
O105        O  0.60827069  0.19613543  0.69167279    -0.57500
C106        C  0.58663743  0.21039462  0.73173440     0.75100
O107        O  0.56283867  0.16672307  0.71050456    -0.58600
C108        C  0.60828176  0.18543015  0.68043542     0.75100
C109        C  0.60648466  0.15779181  0.72839106     0.77500
Cd110      Cd  0.58861463  0.18244200  0.70991056     1.37500
O111        O  0.59232542  0.21170350  0.71731384    -0.57500
O112        O  0.61054385  0.17278506  0.72852692    -0.56300
C113        C  0.55407823  0.17695065  0.70272232     0.77500
O114        O  0.59420795  0.15407895  0.71952167    -0.58700
O115        O  0.58169141  0.19625298  0.73592446    -0.57100
O116        O  0.59873494  0.17332116  0.68249863    -0.57100
O117        O  0.56140094  0.18970496  0.69763341    -0.56300
O118        O  0.70008135  0.09499109  0.82710662    -0.57500
C119        C  0.71029295  0.07739328  0.78039446     0.75100
O120        O  0.66850000  0.05502025  0.80505272    -0.58600
C121        C  0.68750815  0.09842117  0.83565867     0.75100
C122        C  0.66411868  0.10358759  0.78682604     0.77500
Cd123      Cd  0.68480820  0.08105449  0.80482502     1.37500
O124        O  0.71335358  0.08460262  0.79388455    -0.57500
O125        O  0.67844945  0.10712718  0.79183075    -0.56300
C126        C  0.67919848  0.04698204  0.81311854     0.77500
O127        O  0.65883957  0.08935696  0.79041451    -0.58700
O128        O  0.69584019  0.07186434  0.77862418    -0.57100
O129        O  0.67381518  0.09312109  0.83031649    -0.57100
O130        O  0.69162782  0.05499438  0.81805128    -0.56300
O131        O  0.67858974  0.19087476  0.60286344    -0.57500
C132        C  0.72259733  0.20611440  0.58723957     0.75100
O133        O  0.71315047  0.15112919  0.58849951    -0.58600
C134        C  0.67049747  0.17781244  0.60523832     0.75100
C135        C  0.69207018  0.17854264  0.55056355     0.77500
Cd136      Cd  0.70011602  0.17876844  0.58546009     1.37500
O137        O  0.70933695  0.20609353  0.59542144    -0.57500
O138        O  0.68750589  0.19001485  0.56000372    -0.56300
C139        C  0.72079938  0.15474923  0.60163176     0.77500
O140        O  0.69962388  0.16675192  0.55738228    -0.58700
O141        O  0.72510383  0.19375106  0.57816962    -0.57100
O142        O  0.67549075  0.16521154  0.59763363    -0.57100
O143        O  0.71871666  0.16915178  0.60699986    -0.56300
O144        O  0.79384079  0.08980480  0.71120812    -0.57500
C145        C  0.83086404  0.09855998  0.67946272     0.75100
O146        O  0.79528716  0.05488864  0.66834326    -0.58600
C147        C  0.78032082  0.08207284  0.71197963     0.75100
C148        C  0.77916012  0.10317933  0.66184176     0.77500
Cd149      Cd  0.79944266  0.08209388  0.68213811     1.37500
O150        O  0.82471700  0.09496235  0.69330477    -0.57500
O151        O  0.78455320  0.10731424  0.67585165    -0.56300
C152        C  0.80483726  0.04712879  0.67795687     0.77500
O153        O  0.78303795  0.08891768  0.65693648    -0.58700
O154        O  0.82295482  0.09367512  0.66692720    -0.57100
O155        O  0.77594939  0.07447983  0.69911686    -0.57100
O156        O  0.81243823  0.05570169  0.68850982    -0.56300
O157        O  0.18933629  0.09771460  0.70573456    -0.57500
C158        C  0.23410016  0.08327283  0.71758241     0.75100
O159        O  0.21122972  0.05950941  0.67292977    -0.58600
C160        C  0.18071917  0.10184430  0.69342808     0.75100
C161        C  0.23023370  0.10640977  0.66905097     0.77500
Cd162      Cd  0.21157833  0.08472567  0.69019315     1.37500
O163        O  0.21965395  0.08885497  0.71914784    -0.57500
O164        O  0.22496428  0.11066103  0.68303831    -0.56300
C165        C  0.20416454  0.05050907  0.68347976     0.77500
O166        O  0.22664812  0.09196399  0.66447028    -0.58700
O167        O  0.23795335  0.07807782  0.70344213    -0.57100
O168        O  0.18603118  0.09743610  0.67947191    -0.57100
O169        O  0.19995743  0.05748892  0.69670041    -0.56300
O170        O  0.29389923  0.21099371  0.59471888    -0.57500
C171        C  0.33305131  0.18578797  0.60717548     0.75100
O172        O  0.28963770  0.15550572  0.59123114    -0.58600
C173        C  0.28005928  0.21003089  0.58756885     0.75100
C174        C  0.31064044  0.18195743  0.55301523     0.77500
Cd175      Cd  0.30304997  0.18303622  0.58778426     1.37500
O176        O  0.32288085  0.19739028  0.60539425    -0.57500
O177        O  0.31330080  0.19448940  0.56180605    -0.56300
C178        C  0.28381794  0.15867452  0.60532548     0.77500
O179        O  0.30553069  0.16931365  0.56051333    -0.58700
O180        O  0.32986173  0.17272813  0.59931400    -0.57100
O181        O  0.27687687  0.19657543  0.58043913    -0.57100
O182        O  0.28700289  0.17277006  0.61099673    -0.56300
O183        O  0.09567232  0.20337109  0.71908505    -0.57500
C184        C  0.10782662  0.16650703  0.68782844     0.75100
O185        O  0.06142313  0.19472173  0.67602908    -0.58600
C186        C  0.08642974  0.21590328  0.71948037     0.75100
C187        C  0.10682996  0.21905393  0.67034218     0.77500
Cd188      Cd  0.08849202  0.19600609  0.69033620     1.37500
O189        O  0.10486626  0.17319151  0.70156024    -0.57500
O190        O  0.11148409  0.21422855  0.68438856    -0.56300
C191        C  0.05443912  0.18643714  0.68723985     0.77500
O192        O  0.09335127  0.21310344  0.66508406    -0.58700
O193        O  0.10122974  0.17308648  0.67532858    -0.57100
O194        O  0.07798865  0.21873749  0.70666939    -0.57100
O195        O  0.06348601  0.18184683  0.69907095    -0.56300
O196        O  0.19400002  0.31487907  0.60958505    -0.57500
C197        C  0.20454645  0.27269206  0.58608000     0.75100
O198        O  0.15108337  0.28502600  0.59501094    -0.58600
C199        C  0.18290872  0.32564497  0.61135368     0.75100
C200        C  0.17449939  0.30562791  0.55558820     0.77500
Cd201      Cd  0.17889028  0.29702422  0.59006178     1.37500
O202        O  0.20776704  0.28686858  0.59163129    -0.57500
O203        O  0.18671606  0.31061405  0.56393883    -0.56300
C204        C  0.15495905  0.27840311  0.60859488     0.77500
O205        O  0.16365017  0.29770529  0.56344622    -0.58700
O206        O  0.18965372  0.26992819  0.58244288    -0.57100
O207        O  0.17009034  0.32375606  0.60259571    -0.57100
O208        O  0.16954155  0.28080430  0.61356755    -0.56300
O209        O  0.32062137  0.40149615  0.81146261    -0.57500
C210        C  0.27794891  0.42183955  0.79371534     0.75100
O211        O  0.28557328  0.41727204  0.84961760    -0.58600
C212        C  0.32867487  0.39998988  0.82474313     0.75100
C213        C  0.30743429  0.45493667  0.82650073     0.77500
Cd214      Cd  0.29926602  0.42040993  0.82261289     1.37500
O215        O  0.29266771  0.41675385  0.79273667    -0.57500
O216        O  0.31326874  0.44641737  0.81488242    -0.56300
C217        C  0.27851313  0.40381910  0.84621614     0.77500
O218        O  0.29864424  0.44730069  0.83679845    -0.58700
O219        O  0.27323076  0.42614378  0.80789057    -0.57100
O220        O  0.32353482  0.40836539  0.83677179    -0.57100
O221        O  0.28110927  0.39809518  0.83197623    -0.56300
O222        O  0.18094937  0.30808424  0.90753524    -0.57500
C223        C  0.22611067  0.30047465  0.92533741     0.75100
O224        O  0.21593146  0.35119694  0.91356106    -0.58600
C225        C  0.17130705  0.31953383  0.90327521     0.75100
C226        C  0.19248761  0.33275052  0.95545286     0.77500
Cd227      Cd  0.20120306  0.32548558  0.92167329     1.37500
O228        O  0.21210437  0.29723893  0.91924842    -0.57500
O229        O  0.18986727  0.31895443  0.94879208    -0.56300
C230        C  0.21920271  0.34614686  0.89917944     0.77500
O231        O  0.19839597  0.34379595  0.94619708    -0.58700
O232        O  0.22833871  0.31508970  0.93009779    -0.57100
O233        O  0.17489363  0.33377737  0.90846220    -0.57100
O234        O  0.21366145  0.33215072  0.89538754    -0.56300
O235        O  0.18992331  0.40096212  0.68551655    -0.57500
C236        C  0.20415947  0.42618250  0.72818265     0.75100
O237        O  0.16100208  0.44689634  0.70296226    -0.58600
C238        C  0.17756868  0.39987151  0.67600511     0.75100
C239        C  0.15447670  0.40369449  0.72484907     0.77500
Cd240      Cd  0.17744479  0.42153406  0.70460531     1.37500
O241        O  0.20701639  0.42000682  0.71414382    -0.57500
O242        O  0.16932069  0.39936939  0.72304616    -0.56300
C243        C  0.17144072  0.45524494  0.69500107     0.77500
O244        O  0.15001764  0.41649720  0.71719383    -0.58700
O245        O  0.18940473  0.43037107  0.73083687    -0.57100
O246        O  0.16569013  0.40938573  0.67918099    -0.57100
O247        O  0.18439072  0.44774465  0.69065279    -0.56300
O248        O  0.08874286  0.29037682  0.79471604    -0.57500
C249        C  0.10272106  0.32135039  0.83321344     0.75100
O250        O  0.09109932  0.34406974  0.78443027    -0.58600
C251        C  0.08178998  0.29181847  0.78080777     0.75100
C252        C  0.05145758  0.32745587  0.80953167     0.77500
Cd253      Cd  0.08540758  0.32003635  0.80218774     1.37500
O254        O  0.10207616  0.30821546  0.82486906    -0.57500
O255        O  0.05832943  0.31449773  0.81476807    -0.56300
C256        C  0.10636331  0.34122806  0.78303485     0.77500
O257        O  0.06055666  0.33738347  0.80172888    -0.58700
O258        O  0.09470016  0.33344016  0.82757803    -0.57100
O259        O  0.07683722  0.30603654  0.77703593    -0.57100
O260        O  0.11174619  0.32861480  0.79035728    -0.56300
O261        O  0.41371076  0.28805668  0.79897740    -0.57500
C262        C  0.39632363  0.32881515  0.82180291     0.75100
O263        O  0.41398434  0.28908184  0.85480750    -0.58600
C264        C  0.42037276  0.27445401  0.80257804     0.75100
C265        C  0.45134724  0.31183780  0.82858549     0.77500
Cd266      Cd  0.41763291  0.30065163  0.82650121     1.37500
O267        O  0.39950665  0.31877615  0.81037456    -0.57500
O268        O  0.44289938  0.31309715  0.81554850    -0.56300
C269        C  0.40043900  0.28213927  0.85126000     0.77500
O270        O  0.44390059  0.30627262  0.84107565    -0.58700
O271        O  0.40342188  0.32617353  0.83544609    -0.57100
O272        O  0.42600564  0.27315318  0.81705538    -0.57100
O273        O  0.39507243  0.28433861  0.83680441    -0.56300
O274        O  0.28812557  0.21173208  0.91436937    -0.57500
C275        C  0.31681060  0.17400758  0.89835847     0.75100
O276        O  0.34304531  0.21901729  0.91453324    -0.58600
C277        C  0.28975572  0.22595398  0.92046699     0.75100
C278        C  0.31843042  0.19302566  0.95304080     0.77500
Cd279      Cd  0.31686924  0.20310769  0.91892020     1.37500
O280        O  0.30429356  0.18313121  0.89997912    -0.57500
O281        O  0.30657853  0.18930590  0.94360666    -0.56300
C282        C  0.33901651  0.22314818  0.89999950     0.77500
O283        O  0.33032736  0.20069824  0.94646863    -0.58700
O284        O  0.32931608  0.17784076  0.90692634    -0.57100
O285        O  0.30387353  0.22950364  0.92608673    -0.57100
O286        O  0.32532611  0.21785338  0.89480102    -0.56300
O287        O  0.40396498  0.19281049  0.68433129    -0.57500
C288        C  0.41987073  0.20940687  0.72887737     0.75100
O289        O  0.41806864  0.15538834  0.72219963    -0.58600
C290        C  0.40282685  0.17960411  0.67618693     0.75100
C291        C  0.45619110  0.18099829  0.69856164     0.77500
Cd292      Cd  0.42146652  0.18174702  0.70658067     1.37500
O293        O  0.41413097  0.21028124  0.71438749    -0.57500
O294        O  0.44672275  0.19235862  0.69372846    -0.56300
C295        C  0.40315583  0.15830576  0.72580051     0.77500
O296        O  0.44946841  0.16940228  0.70649503    -0.58700
O297        O  0.42655981  0.19593958  0.73282940    -0.57100
O298        O  0.41099750  0.16751922  0.68164525    -0.57100
O299        O  0.39728324  0.17170898  0.72058777    -0.56300
O300        O  0.32009249  0.09867101  0.82469786    -0.57500
C301        C  0.30838733  0.07630879  0.78170410     0.75100
O302        O  0.36188692  0.08287403  0.79364339    -0.58600
C303        C  0.33218071  0.10092788  0.83430993     0.75100
C304        C  0.33639955  0.04471544  0.81634098     0.77500
Cd305      Cd  0.33396981  0.07877922  0.80621405     1.37500
O306        O  0.30563303  0.08297292  0.79552378    -0.57500
O307        O  0.32333164  0.05295896  0.81825338    -0.56300
C308        C  0.35744165  0.09538492  0.78546992     0.77500
O309        O  0.34862123  0.05244963  0.81055178    -0.58700
O310        O  0.32265385  0.07042868  0.77962886    -0.57100
O311        O  0.34487445  0.09238880  0.83143154    -0.57100
O312        O  0.34267247  0.09990909  0.78727558    -0.56300
O313        O  0.70424908  0.77539474  0.59667736    -0.57500
C314        C  0.66480886  0.80061075  0.61121110     0.75100
O315        O  0.70642689  0.81508533  0.61969113    -0.58600
C316        C  0.71878167  0.77773752  0.59160313     0.75100
C317        C  0.68753828  0.80989120  0.55916120     0.77500
Cd318      Cd  0.69536125  0.80432326  0.59349644     1.37500
O319        O  0.67481842  0.78886609  0.60932536    -0.57500
O320        O  0.68472610  0.79639565  0.56631771    -0.56300
C321        C  0.71325276  0.82767043  0.61362741     0.77500
O322        O  0.69315289  0.82132405  0.56811534    -0.58700
O323        O  0.66851885  0.81399782  0.60418003    -0.57100
O324        O  0.72239659  0.79229463  0.58759324    -0.57100
O325        O  0.71159695  0.82962927  0.59825669    -0.56300
O326        O  0.81389219  0.89916950  0.69272780    -0.57500
C327        C  0.77241152  0.91616024  0.70646041     0.75100
O328        O  0.78966306  0.94038446  0.66165278    -0.58600
C329        C  0.82317499  0.89584062  0.68073903     0.75100
C330        C  0.77228149  0.89381817  0.65643801     0.77500
Cd331      Cd  0.79270061  0.91436305  0.67753200     1.37500
O332        O  0.78615693  0.90882344  0.70667623    -0.57500
O333        O  0.78204045  0.90437175  0.65042420    -0.56300
C334        C  0.79801987  0.94932071  0.67130287     0.77500
O335        O  0.77209024  0.89282940  0.67194603    -0.58700
O336        O  0.76824947  0.92275028  0.69296181    -0.57100
O337        O  0.81886804  0.90174035  0.66695638    -0.57100
O338        O  0.80469514  0.94197708  0.68331353    -0.56300
O339        O  0.80868746  0.67336333  0.60170717    -0.57500
C340        C  0.79522739  0.71705216  0.58166398     0.75100
O341        O  0.84966446  0.70663934  0.58734526    -0.58600
C342        C  0.82152344  0.66484921  0.60404160     0.75100
C343        C  0.82322127  0.68337114  0.54928932     0.77500
Cd344      Cd  0.82188804  0.69375696  0.58332853     1.37500
O345        O  0.79370308  0.70366766  0.58949117    -0.57500
O346        O  0.81094536  0.68054395  0.55840530    -0.56300
C347        C  0.84540545  0.71491798  0.59984153     0.77500
O348        O  0.83544605  0.69026548  0.55613706    -0.58700
O349        O  0.80878522  0.71927397  0.57433135    -0.57100
O350        O  0.83431174  0.66946003  0.59646841    -0.57100
O351        O  0.83068616  0.71308235  0.60454850    -0.56300
O352        O  0.89576873  0.82116820  0.69035033    -0.57500
C353        C  0.91235668  0.77689600  0.70742410     0.75100
O354        O  0.90834325  0.78045417  0.65510320    -0.58600
C355        C  0.89502105  0.82933512  0.67709082     0.75100
C356        C  0.94771383  0.80663402  0.67752688     0.77500
Cd357      Cd  0.91293505  0.79879288  0.67948165     1.37500
O358        O  0.90811390  0.79179250  0.70891218    -0.57500
O359        O  0.93881768  0.81084673  0.68954689    -0.56300
C360        C  0.89299139  0.77892044  0.65765392     0.77500
O361        O  0.94040868  0.79928065  0.66583841    -0.58700
O362        O  0.91687471  0.77243911  0.69324221    -0.57100
O363        O  0.90335993  0.82385570  0.66513867    -0.57100
O364        O  0.88722591  0.78693007  0.66965058    -0.56300
O365        O  0.59403895  0.79900590  0.68787097    -0.57500
C366        C  0.57548394  0.78637725  0.73305656     0.75100
O367        O  0.58149324  0.84084042  0.72051745    -0.58600
C368        C  0.59486168  0.81118535  0.67821702     0.75100
C369        C  0.54283747  0.81632479  0.70034489     0.77500
Cd370      Cd  0.57720825  0.81286437  0.70907265     1.37500
O371        O  0.58318210  0.78450654  0.71964901    -0.57500
O372        O  0.55137828  0.80421880  0.69565675    -0.56300
C373        C  0.59553152  0.83795159  0.72670132     0.77500
O374        O  0.55034161  0.82718392  0.70861720    -0.58700
O375        O  0.56867742  0.80019127  0.73509410    -0.57100
O376        O  0.58716267  0.82393385  0.68262514    -0.57100
O377        O  0.60107153  0.82358232  0.72462716    -0.56300
O378        O  0.69351183  0.90149557  0.81906599    -0.57500
C379        C  0.70161332  0.92152961  0.77380561     0.75100
O380        O  0.65087820  0.90753748  0.78468688    -0.58600
C381        C  0.68164473  0.89776759  0.82843906     0.75100
C382        C  0.66978184  0.95008134  0.80687767     0.77500
Cd383      Cd  0.67692212  0.91642245  0.79851167     1.37500
O384        O  0.70555872  0.91620064  0.78793407    -0.57500
O385        O  0.68314518  0.94314764  0.81089961    -0.56300
C386        C  0.65675998  0.89395132  0.77982768     0.77500
O387        O  0.65908636  0.94109150  0.79991248    -0.58700
O388        O  0.68656964  0.92487358  0.77156073    -0.57100
O389        O  0.66761901  0.90329123  0.82435576    -0.57100
O390        O  0.67152827  0.89099171  0.78384272    -0.56300
O391        O  0.59250042  0.69988541  0.79813842    -0.57500
C392        C  0.60620386  0.66294422  0.82973923     0.75100
O393        O  0.58889083  0.70607965  0.85439566    -0.58600
C394        C  0.58416293  0.71304758  0.79814800     0.75100
C395        C  0.55080835  0.68368371  0.82922606     0.77500
Cd396      Cd  0.58560124  0.69220423  0.82719130     1.37500
O397        O  0.60527560  0.67129734  0.81662908    -0.57500
O398        O  0.56004592  0.67792309  0.81811105    -0.56300
C399        C  0.60141472  0.71441161  0.85031892     0.77500
O400        O  0.55785105  0.69246870  0.84000442    -0.58700
O401        O  0.59707049  0.66763505  0.84141918    -0.57100
O402        O  0.57660515  0.71628049  0.81133835    -0.57100
O403        O  0.60670047  0.71214009  0.83587975    -0.56300
O404        O  0.68906033  0.82349911  0.90275397    -0.57500
C405        C  0.70200299  0.77791458  0.92287962     0.75100
O406        O  0.65891369  0.80232448  0.94456275    -0.58600
C407        C  0.67605411  0.83189315  0.90075428     0.75100
C408        C  0.65473082  0.78177908  0.89817741     0.77500
Cd409      Cd  0.67563117  0.80141487  0.91925939     1.37500
O410        O  0.70462998  0.79191604  0.91656131    -0.57500
O411        O  0.66844767  0.78756910  0.89364530    -0.56300
C412        C  0.66982001  0.80896518  0.95356046     0.77500
O413        O  0.65018449  0.78537625  0.91264676    -0.58700
O414        O  0.68743034  0.77507530  0.92752148    -0.57100
O415        O  0.66332027  0.82667229  0.90805180    -0.57100
O416        O  0.68301364  0.81317876  0.94642309    -0.56300
O417        O  0.68933836  0.59391093  0.81713519    -0.57500
C418        C  0.73116593  0.57326489  0.80684466     0.75100
O419        O  0.72143817  0.58293323  0.86047634    -0.58600
C420        C  0.67876004  0.59652082  0.82820502     0.75100
C421        C  0.69983041  0.54234058  0.83995687     0.77500
Cd422      Cd  0.70793389  0.57654513  0.83348952     1.37500
O423        O  0.71630487  0.57720261  0.80432497    -0.57500
O424        O  0.69534597  0.54965377  0.82696322    -0.56300
C425        C  0.72633020  0.59705170  0.85610658     0.77500
O426        O  0.70720157  0.55108522  0.85054363    -0.58700
O427        O  0.73520061  0.57055565  0.82164382    -0.57100
O428        O  0.68112502  0.58917739  0.84176841    -0.57100
O429        O  0.72245325  0.60148127  0.84170356    -0.56300
O430        O  0.82185520  0.70302848  0.90186152    -0.57500
C431        C  0.77834023  0.71630428  0.91985235     0.75100
O432        O  0.78618666  0.66231848  0.91438175    -0.58600
C433        C  0.82983783  0.69036047  0.89774594     0.75100
C434        C  0.81066692  0.68484073  0.95283193     0.77500
Cd435      Cd  0.80090068  0.68892665  0.91855187     1.37500
O436        O  0.79174173  0.71712012  0.91197055    -0.57500
O437        O  0.81381684  0.69775133  0.94475518    -0.56300
C438        C  0.78000097  0.66634710  0.90062579     0.77500
O439        O  0.80378354  0.67337239  0.94484693    -0.58700
O440        O  0.77564499  0.70302622  0.92748212    -0.57100
O441        O  0.82506085  0.67695827  0.90404325    -0.57100
O442        O  0.78355729  0.68053415  0.89542856    -0.56300
O443        O  0.78471740  0.58141326  0.71238381    -0.57500
C444        C  0.81084310  0.59722304  0.67410051     0.75100
O445        O  0.84100130  0.58148359  0.71431702    -0.58600
C446        C  0.78694735  0.57479428  0.72631860     0.75100
C447        C  0.81659422  0.54232296  0.69280216     0.77500
Cd448      Cd  0.81312839  0.57634525  0.70267501     1.37500
O449        O  0.79828168  0.59310333  0.68230259    -0.57500
O450        O  0.80448620  0.55098278  0.68824865    -0.56300
C451        C  0.83677915  0.59396499  0.72261375     0.77500
O452        O  0.82752967  0.54960707  0.70120386    -0.58700
O453        O  0.82444794  0.59119064  0.67876925    -0.57100
O454        O  0.80093798  0.56842356  0.72884788    -0.57100
O455        O  0.82184260  0.59824093  0.72145751    -0.56300
O456        O  0.91025925  0.70534652  0.78548825    -0.57500
C457        C  0.89687817  0.67844022  0.82717562     0.75100
O458        O  0.90386336  0.65029057  0.78220019    -0.58600
C459        C  0.91431351  0.70193525  0.77082104     0.75100
C460        C  0.94775887  0.66985185  0.79951575     0.77500
Cd461      Cd  0.91281610  0.67639581  0.79532892     1.37500
O462        O  0.89856814  0.69100958  0.81813774    -0.57500
O463        O  0.94116140  0.68321247  0.80394924    -0.56300
C464        C  0.88962421  0.65544219  0.77833509     0.77500
O465        O  0.93806167  0.65902640  0.79385799    -0.58700
O466        O  0.90352429  0.66538057  0.82199517    -0.57100
O467        O  0.91778700  0.68709159  0.76793264    -0.57100
O468        O  0.88619836  0.66996210  0.78263090    -0.56300
O469        O  0.41112776  0.70778459  0.79967633    -0.57500
C470        C  0.39901381  0.66932601  0.82627463     0.75100
O471        O  0.44418224  0.69889635  0.84422847    -0.58600
C472        C  0.41773278  0.72184479  0.80033132     0.75100
C473        C  0.39970464  0.71852530  0.85175497     0.77500
Cd474      Cd  0.41828829  0.69937078  0.82811041     1.37500
O475        O  0.40488488  0.67630037  0.81368573    -0.57500
O476        O  0.39498535  0.71651581  0.83703884    -0.56300
C477        C  0.45296712  0.69156013  0.83372975     0.77500
O478        O  0.41319060  0.71171458  0.85566892    -0.58700
O479        O  0.40276488  0.67570997  0.83996709    -0.57100
O480        O  0.42500287  0.72538522  0.81367558    -0.57100
O481        O  0.44564927  0.68722632  0.82066805    -0.56300
O482        O  0.29776530  0.81001314  0.90998288    -0.57500
C483        C  0.28654505  0.76616675  0.92945231     0.75100
O484        O  0.34029067  0.77626117  0.91813296    -0.58600
C485        C  0.30974157  0.81965159  0.90746093     0.75100
C486        C  0.31744400  0.79831020  0.96006486     0.77500
Cd487      Cd  0.31327566  0.78933098  0.92565742     1.37500
O488        O  0.28485453  0.77918531  0.92109827    -0.57500
O489        O  0.30566585  0.80350391  0.95126087    -0.56300
C490        C  0.33543839  0.77157802  0.90403712     0.77500
O491        O  0.32814585  0.78967288  0.95272732    -0.58700
O492        O  0.30059825  0.76381279  0.93580393    -0.57100
O493        O  0.32337172  0.81564156  0.91397624    -0.57100
O494        O  0.32072992  0.77508145  0.90030303    -0.56300
O495        O  0.40772324  0.79422777  0.72338216    -0.57500
C496        C  0.39153662  0.82304629  0.68333110     0.75100
O497        O  0.40823126  0.84960466  0.72717412    -0.58600
C498        C  0.41492739  0.79700619  0.73698560     0.75100
C499        C  0.44575349  0.82728769  0.70410300     0.77500
Cd500      Cd  0.41159262  0.82294507  0.71296877     1.37500
O501        O  0.39372237  0.80998444  0.69152919    -0.57500
O502        O  0.43821597  0.81398532  0.70115634    -0.56300
C503        C  0.39444978  0.84603094  0.73351452     0.77500
O504        O  0.43720953  0.83878950  0.71010917    -0.58700
O505        O  0.39901103  0.83565136  0.68853994    -0.57100
O506        O  0.42026711  0.81142833  0.73911690    -0.57100
O507        O  0.38862746  0.83202856  0.73003049    -0.56300
O508        O  0.28681987  0.91141186  0.80531206    -0.57500
C509        C  0.31594466  0.89527652  0.84538370     0.75100
O510        O  0.34057984  0.90908213  0.79916688    -0.58600
C511        C  0.28959158  0.91962395  0.79233009     0.75100
C512        C  0.32081440  0.94879650  0.82513664     0.77500
Cd513      Cd  0.31558642  0.91504974  0.81597625     1.37500
O514        O  0.30260076  0.89813244  0.83773098    -0.57500
O515        O  0.30757233  0.94123577  0.82839501    -0.56300
C516        C  0.33568286  0.89488411  0.79497652     0.77500
O517        O  0.33225313  0.94034595  0.81875615    -0.58700
O518        O  0.32865694  0.90259841  0.84013824    -0.57100
O519        O  0.30382098  0.92577598  0.79097638    -0.57100
O520        O  0.32198335  0.89030119  0.80074003    -0.56300
O521        O  0.31306812  0.80388847  0.61019224    -0.57500
C522        C  0.26815460  0.79608849  0.58912499     0.75100
O523        O  0.28227131  0.82852827  0.62088291    -0.58600
C524        C  0.32269145  0.81569349  0.61355715     0.75100
C525        C  0.30389844  0.82805318  0.56091795     0.77500
Cd526      Cd  0.29334422  0.82054473  0.59413047     1.37500
O527        O  0.28261553  0.79195471  0.59331808    -0.57500
O528        O  0.30684128  0.81437010  0.56766945    -0.56300
C529        C  0.27576750  0.84193396  0.61645096     0.77500
O530        O  0.29674629  0.83864822  0.56979169    -0.58700
O531        O  0.26566029  0.81126533  0.58711252    -0.57100
O532        O  0.31914935  0.82946314  0.60720387    -0.57100
O533        O  0.27754143  0.84584761  0.60144853    -0.56300
O534        O  0.18038416  0.89898231  0.70701128    -0.57500
C535        C  0.21883062  0.91818269  0.72408168     0.75100
O536        O  0.22025800  0.89881106  0.68518880    -0.58600
C537        C  0.17029370  0.89790378  0.69519254     0.75100
C538        C  0.19355927  0.95361184  0.69086225     0.77500
Cd539      Cd  0.19929644  0.91856514  0.69435233     1.37500
O540        O  0.20391063  0.91365186  0.72421426    -0.57500
O541        O  0.18534276  0.94492647  0.70080821    -0.56300
C542        C  0.21874804  0.90143486  0.66992072     0.77500
O543        O  0.20381454  0.94599752  0.68204027    -0.58700
O544        O  0.22446215  0.92286292  0.71034688    -0.57100
O545        O  0.17305347  0.90712533  0.68295389    -0.57100
O546        O  0.20816937  0.91209811  0.66578719    -0.56300
O547        O  0.29008447  0.59454513  0.80074417    -0.57500
C548        C  0.32710131  0.60328264  0.83318305     0.75100
O549        O  0.27707071  0.59312689  0.85422820    -0.58600
C550        C  0.27628427  0.58733707  0.79976622     0.75100
C551        C  0.30030472  0.55225105  0.83505941     0.77500
Cd552      Cd  0.29520404  0.58720818  0.83003706     1.37500
O553        O  0.32011864  0.60099807  0.81942643    -0.57500
O554        O  0.30708827  0.55993544  0.82335759    -0.56300
C555        C  0.27336754  0.60755126  0.84969199     0.77500
O556        O  0.29182696  0.56084842  0.84486878    -0.58700
O557        O  0.31967388  0.59754584  0.84561126    -0.57100
O558        O  0.27159321  0.57984125  0.81255164    -0.57100
O559        O  0.28003434  0.61247820  0.83654188    -0.56300
O560        O  0.19601006  0.70622646  0.91792987    -0.57500
C561        C  0.15801997  0.67818129  0.90323609     0.75100
O562        O  0.20007306  0.65004525  0.91911713    -0.58600
C563        C  0.20931826  0.70562363  0.92611288     0.75100
C564        C  0.17867898  0.67450992  0.95821927     0.77500
Cd565      Cd  0.18741564  0.67767085  0.92389422     1.37500
O566        O  0.16771897  0.69030393  0.90421048    -0.57500
O567        O  0.17503612  0.68710930  0.94984630    -0.56300
C568        C  0.20878251  0.65460500  0.90704311     0.77500
O569        O  0.18550462  0.66288782  0.95047532    -0.58700
O570        O  0.16142742  0.66607807  0.91239785    -0.57100
O571        O  0.21216471  0.69232924  0.93368001    -0.57100
O572        O  0.20744436  0.66950756  0.90293470    -0.56300
O573        O  0.18921412  0.67844379  0.59854974    -0.57500
C574        C  0.20399664  0.72211025  0.58336740     0.75100
O575        O  0.16028493  0.70151884  0.55652396    -0.58600
C576        C  0.17643778  0.66967853  0.60019421     0.75100
C577        C  0.15419082  0.71824117  0.60412875     0.77500
Cd578      Cd  0.17602784  0.70031076  0.58267730     1.37500
O579        O  0.20557751  0.70691701  0.58620308    -0.57500
O580        O  0.16637300  0.71006377  0.60931788    -0.56300
C581        C  0.17089788  0.69407662  0.54791527     0.77500
O582        O  0.15160644  0.71785635  0.58873672    -0.58700
O583        O  0.18962574  0.72701370  0.57989209    -0.57100
O584        O  0.16360569  0.67452606  0.59270244    -0.57100
O585        O  0.18341733  0.68877935  0.55554691    -0.56300
O586        O  0.08372144  0.79409909  0.70787026    -0.57500
C587        C  0.10035821  0.83066929  0.68026893     0.75100
O588        O  0.08764798  0.79134163  0.65000900    -0.58600
C589        C  0.08007400  0.77906253  0.70619088     0.75100
C590        C  0.04588820  0.80511933  0.67262056     0.77500
Cd591      Cd  0.08093134  0.80076172  0.67818057     1.37500
O592        O  0.09997110  0.82014000  0.69168974    -0.57500
O593        O  0.05301682  0.81187826  0.68473528    -0.56300
C594        C  0.09877703  0.78140913  0.65450510     0.77500
O595        O  0.05507278  0.79728099  0.66288237    -0.58700
O596        O  0.09131411  0.82770425  0.66790785    -0.57100
O597        O  0.07671273  0.77434104  0.69174585    -0.57100
O598        O  0.10201213  0.78104442  0.66973149    -0.56300
O599        O  0.19968867  0.60100521  0.68105466    -0.57500
C600        C  0.20809933  0.58369051  0.72856390     0.75100
O601        O  0.15584265  0.58896530  0.71318214    -0.58600
C602        C  0.18721796  0.60492605  0.67251049     0.75100
C603        C  0.18096146  0.55181531  0.69162661     0.77500
Cd604      Cd  0.18406444  0.58560930  0.70221956     1.37500
O605        O  0.21100889  0.59229718  0.71589139    -0.57500
O606        O  0.19412434  0.55992862  0.68973955    -0.56300
C607        C  0.15881930  0.60233109  0.72059401     0.77500
O608        O  0.16898330  0.55949489  0.69791223    -0.58700
O609        O  0.19455215  0.57601310  0.72862927    -0.57100
O610        O  0.17346373  0.59969788  0.67757434    -0.57100
O611        O  0.17323351  0.60806591  0.71905296    -0.56300
O612        O  0.09628007  0.69619112  0.81543189    -0.57500
C613        C  0.07676284  0.70496154  0.77017169     0.75100
O614        O  0.08839804  0.65434874  0.78054650    -0.58600
C615        C  0.09782406  0.68476358  0.82590734     0.75100
C616        C  0.04589428  0.67614864  0.80342101     0.77500
Cd617      Cd  0.08032696  0.68024330  0.79517386     1.37500
O618        O  0.08275221  0.70840082  0.78416760    -0.57500
O619        O  0.05410527  0.68892903  0.80677246    -0.56300
C620        C  0.10309149  0.65907653  0.77804070     0.77500
O621        O  0.05388608  0.66435892  0.79708242    -0.58700
O622        O  0.07229713  0.69024777  0.76797682    -0.57100
O623        O  0.09076264  0.67129586  0.82243939    -0.57100
O624        O  0.10690575  0.67302824  0.78367641    -0.56300
O625        O  0.80887914  0.32272583  0.40686094    -0.57500
C626        C  0.79498507  0.27653969  0.42524418     0.75100
O627        O  0.84828113  0.28486028  0.41845056    -0.58600
C628        C  0.82208823  0.33079883  0.40483797     0.75100
C629        C  0.82579484  0.30823705  0.45741831     0.77500
Cd630      Cd  0.82184457  0.30007963  0.42298936     1.37500
O631        O  0.79337342  0.28934522  0.41650667    -0.57500
O632        O  0.81361335  0.31320159  0.44900542    -0.56300
C633        C  0.84506113  0.28129859  0.40360829     0.77500
O634        O  0.83675984  0.30037288  0.44965542    -0.58700
O635        O  0.80861239  0.27499557  0.43263894    -0.57100
O636        O  0.83475259  0.32522716  0.41205540    -0.57100
O637        O  0.83141266  0.28640148  0.39807525    -0.56300
O638        O  0.90749949  0.17771510  0.32234137    -0.57500
C639        C  0.92452567  0.22168343  0.30760964     0.75100
O640        O  0.92018799  0.21305871  0.36272308    -0.58600
C641        C  0.90405175  0.17011201  0.33546168     0.75100
C642        C  0.95900332  0.19081064  0.33895355     0.77500
Cd643      Cd  0.92437344  0.19947995  0.33543076     1.37500
O644        O  0.91620356  0.20851895  0.30725031    -0.57500
O645        O  0.95078701  0.18749160  0.32611479    -0.56300
C646        C  0.90746683  0.22085609  0.35815837     0.77500
O647        O  0.95107908  0.19755810  0.35050464    -0.58700
O648        O  0.93289690  0.22421870  0.32053439    -0.57100
O649        O  0.91069307  0.17555745  0.34846368    -0.57100
O650        O  0.90278951  0.21848881  0.34350893    -0.56300
O651        O  0.70793561  0.21101623  0.41288927    -0.57500
C652        C  0.67132853  0.17898365  0.39973579     0.75100
O653        O  0.71920023  0.15639936  0.41149079    -0.58600
C654        C  0.72171894  0.21106336  0.42027131     0.75100
C655        C  0.69571375  0.17461003  0.45251037     0.77500
Cd656      Cd  0.70225503  0.18131137  0.41793596     1.37500
O657        O  0.67835740  0.19263910  0.40223644    -0.57500
O658        O  0.69046234  0.18747568  0.44550459    -0.56300
C659        C  0.72488166  0.16193648  0.39808950     0.77500
O660        O  0.70327354  0.16453829  0.44339056    -0.58700
O661        O  0.67824586  0.16659227  0.40611132    -0.57100
O662        O  0.72605019  0.19763515  0.42681366    -0.57100
O663        O  0.71997163  0.17608902  0.39396594    -0.56300
O664        O  0.82351670  0.10116148  0.31110187    -0.57500
C665        C  0.78061755  0.08153947  0.29752666     0.75100
O666        O  0.80437359  0.05596167  0.33912822    -0.58600
C667        C  0.83283436  0.10341018  0.32340670     0.75100
C668        C  0.78425620  0.10084785  0.34897570     0.77500
Cd669      Cd  0.80356194  0.08300059  0.32492276     1.37500
O670        O  0.79498717  0.08733163  0.29585504    -0.57500
O671        O  0.78813194  0.10673878  0.33511738    -0.56300
C672        C  0.81305099  0.04874044  0.32844377     0.77500
O673        O  0.78955374  0.08653439  0.35205475    -0.58700
O674        O  0.77702888  0.07625515  0.31170193    -0.57100
O675        O  0.82905508  0.09564431  0.33636883    -0.57100
O676        O  0.81805878  0.05755024  0.31664826    -0.56300
O677        O  0.69457200  0.09621732  0.19069157    -0.57500
C678        C  0.70444437  0.07710312  0.23522414     0.75100
O679        O  0.65239529  0.08886726  0.22462037    -0.58600
C680        C  0.68279651  0.09905443  0.18084700     0.75100
C681        C  0.67231285  0.04659892  0.20324898     0.77500
Cd682      Cd  0.67867239  0.08062383  0.21094470     1.37500
O683        O  0.70759547  0.08207418  0.22080225    -0.57500
O684        O  0.68535873  0.05388108  0.19887818    -0.56300
C685        C  0.65777874  0.10282004  0.22904445     0.77500
O686        O  0.66155697  0.05534726  0.21032978    -0.58700
O687        O  0.68959876  0.07338989  0.23810376    -0.57100
O688        O  0.66909329  0.09246804  0.18434860    -0.57100
O689        O  0.67233265  0.10628056  0.22477764    -0.56300
O690        O  0.59386608  0.19530671  0.32484952    -0.57500
C691        C  0.57543132  0.20440615  0.28003345     0.75100
O692        O  0.58357228  0.15162984  0.29234637    -0.58600
C693        C  0.59833469  0.18339731  0.33379411     0.75100
C694        C  0.54354676  0.17317605  0.31106636     0.77500
Cd695      Cd  0.57820697  0.17894826  0.30443083     1.37500
O696        O  0.58111220  0.20746992  0.29423395    -0.57500
O697        O  0.55034691  0.18670366  0.31464467    -0.56300
C698        C  0.59683057  0.15558705  0.28518458     0.77500
O699        O  0.55302818  0.16200104  0.30593627    -0.58700
O700        O  0.57105876  0.18975143  0.27735796    -0.57100
O701        O  0.59267972  0.16946027  0.32979201    -0.57100
O702        O  0.60171245  0.17020053  0.28732254    -0.56300
O703        O  0.70293419  0.20569013  0.10290048    -0.57500
C704        C  0.67494491  0.16695759  0.11087743     0.75100
O705        O  0.64693440  0.20993416  0.09915139    -0.58600
C706        C  0.70545219  0.21648632  0.09199639     0.75100
C707        C  0.66866504  0.19288638  0.05850781     0.77500
Cd708      Cd  0.67472892  0.19814404  0.09331538     1.37500
O709        O  0.68697600  0.17680870  0.11114322    -0.57500
O710        O  0.67948306  0.18462211  0.06616562    -0.56300
C711        C  0.65147534  0.21908268  0.11087362     0.77500
O712        O  0.66054045  0.20302046  0.06703256    -0.58700
O713        O  0.66286107  0.17114772  0.10194251    -0.57100
O714        O  0.69395510  0.21856303  0.08165767    -0.57100
O715        O  0.66659463  0.21841121  0.11457693    -0.56300
O716        O  0.59788158  0.32403599  0.20011655    -0.57500
C717        C  0.57856574  0.27989666  0.21770477     0.75100
O718        O  0.55439193  0.30102660  0.17430631    -0.58600
C719        C  0.59897735  0.33131477  0.18636400     0.75100
C720        C  0.60147094  0.28061692  0.16903071     0.77500
Cd721      Cd  0.58083493  0.30110139  0.18941609     1.37500
O722        O  0.58465838  0.29418363  0.21900794    -0.57500
O723        O  0.60628952  0.28709809  0.18234310    -0.56300
C724        C  0.54671245  0.30977223  0.18465130     0.77500
O725        O  0.58673461  0.28366181  0.16474135    -0.58700
O726        O  0.57334507  0.27585466  0.20360125    -0.57100
O727        O  0.59106048  0.32500879  0.17450264    -0.57100
O728        O  0.55503416  0.31504061  0.19674242    -0.56300
O729        O  0.78531923  0.40808035  0.29346814    -0.57500
C730        C  0.81331126  0.39621906  0.33255300     0.75100
O731        O  0.83975718  0.40316557  0.28463101    -0.58600
C732        C  0.78640607  0.41441596  0.27929283     0.75100
C733        C  0.82238657  0.44671432  0.30575916     0.77500
Cd734      Cd  0.81491205  0.41206077  0.30065159     1.37500
O735        O  0.80057643  0.39972247  0.32423109    -0.57500
O736        O  0.81040201  0.43969195  0.31277786    -0.56300
C737        C  0.83480513  0.38858604  0.28226448     0.77500
O738        O  0.83162875  0.43751279  0.29726940    -0.58700
O739        O  0.82695090  0.40086658  0.32656504    -0.57100
O740        O  0.80045447  0.41975738  0.27527790    -0.57100
O741        O  0.82099246  0.38500395  0.28846405    -0.56300
O742        O  0.90285700  0.28122050  0.21824918    -0.57500
C743        C  0.89266668  0.30601860  0.17660829     0.75100
O744        O  0.90641124  0.33684980  0.21763901    -0.58600
C745        C  0.91181276  0.28206576  0.23101689     0.75100
C746        C  0.94619288  0.31090426  0.19937771     0.77500
Cd747      Cd  0.91126952  0.30850360  0.20716281     1.37500
O748        O  0.89607557  0.29359235  0.18533318    -0.57500
O749        O  0.93716441  0.29949341  0.19383138    -0.56300
C750        C  0.89350368  0.33334463  0.22565436     0.77500
O751        O  0.93894065  0.32175450  0.20782408    -0.58700
O752        O  0.89836608  0.31959262  0.18165555    -0.57100
O753        O  0.92042128  0.29492980  0.23254286    -0.57100
O754        O  0.88877162  0.31856499  0.22484510    -0.56300
O755        O  0.67819425  0.40449225  0.19661312    -0.57500
C756        C  0.72274275  0.42126431  0.20466458     0.75100
O757        O  0.70856757  0.41060269  0.15129245    -0.58600
C758        C  0.66860366  0.39998518  0.18519445     0.75100
C759        C  0.69082473  0.45239874  0.17115605     0.77500
Cd760      Cd  0.69835665  0.41838815  0.17892767     1.37500
O761        O  0.70871932  0.41508421  0.20743441    -0.57500
O762        O  0.68582399  0.44570858  0.18428101    -0.56300
C763        C  0.71581360  0.39763440  0.15593639     0.77500
O764        O  0.69851479  0.44317519  0.16132005    -0.58700
O765        O  0.72521661  0.42641941  0.19019835    -0.57100
O766        O  0.67234172  0.40465238  0.17081576    -0.57100
O767        O  0.71460883  0.39412112  0.17104596    -0.56300
O768        O  0.81844705  0.30186347  0.10182916    -0.57500
C769        C  0.77380197  0.28585162  0.08323000     0.75100
O770        O  0.77786799  0.33931063  0.09337408    -0.58600
C771        C  0.82537058  0.31529335  0.10561178     0.75100
C772        C  0.80182181  0.32097375  0.05287358     0.77500
Cd773      Cd  0.79463457  0.31438964  0.08718375     1.37500
O774        O  0.78602925  0.28541547  0.09296323    -0.57500
O775        O  0.80741308  0.30846621  0.06028305    -0.56300
C776        C  0.77312756  0.33436441  0.10736613     0.77500
O777        O  0.79391733  0.33111870  0.06163472    -0.58700
O778        O  0.77163492  0.29913293  0.07548472    -0.57100
O779        O  0.81858531  0.32818004  0.10012385    -0.57100
O780        O  0.77820845  0.32035724  0.11176194    -0.56300
O781        O  0.68366448  0.81052245  0.40871579    -0.57500
C782        C  0.72714179  0.79541185  0.42983807     0.75100
O783        O  0.71932103  0.84858114  0.42596965    -0.58600
C784        C  0.67429679  0.82294489  0.40830957     0.75100
C785        C  0.69501043  0.82548486  0.46289102     0.77500
Cd786      Cd  0.70379362  0.82226209  0.42853982     1.37500
O787        O  0.71270610  0.79310771  0.42430133    -0.57500
O788        O  0.69146471  0.81275653  0.45466049    -0.56300
C789        C  0.72358745  0.84619841  0.41118035     0.77500
O790        O  0.70178913  0.83706045  0.45501459    -0.58700
O791        O  0.73034433  0.80974765  0.43487665    -0.57100
O792        O  0.67795039  0.83451568  0.41805776    -0.57100
O793        O  0.71850463  0.83305338  0.40461901    -0.56300
O794        O  0.79396658  0.91386861  0.30020367    -0.57500
C795        C  0.83310327  0.89939766  0.32808913     0.75100
O796        O  0.80176651  0.94251660  0.34658489    -0.58600
C797        C  0.78129020  0.92287652  0.30138915     0.75100
C798        C  0.78086016  0.89694561  0.34941667     0.77500
Cd799      Cd  0.80230196  0.91741221  0.32942724     1.37500
O800        O  0.82354959  0.90012094  0.31577023    -0.57500
O801        O  0.78296526  0.89475591  0.33418126    -0.56300
C802        C  0.80946792  0.95149128  0.33644273     0.77500
O803        O  0.78889880  0.90867088  0.35580558    -0.58700
O804        O  0.82866965  0.90741483  0.34064583    -0.57100
O805        O  0.77880174  0.92944664  0.31525829    -0.57100
O806        O  0.81466292  0.94443970  0.32358427    -0.56300
O807        O  0.78799450  0.70559431  0.41557998    -0.57500
C808        C  0.81884357  0.66881742  0.39970656     0.75100
O809        O  0.84239678  0.71674633  0.41286295    -0.58600
C810        C  0.78947517  0.72007265  0.42111548     0.75100
C811        C  0.82531710  0.69050388  0.45217887     0.77500
Cd812      Cd  0.81798077  0.69902438  0.41830682     1.37500
O813        O  0.80547774  0.67635445  0.40236870    -0.57500
O814        O  0.81130468  0.68791542  0.44581761    -0.56300
C815        C  0.83798347  0.72068727  0.39841958     0.77500
O816        O  0.83606192  0.69671302  0.44278470    -0.58700
O817        O  0.83165014  0.67491986  0.40617372    -0.57100
O818        O  0.80383241  0.72437418  0.42543372    -0.57100
O819        O  0.82470672  0.71433432  0.39326370    -0.56300
O820        O  0.91935973  0.78863775  0.29999641    -0.57500
C821        C  0.90053797  0.82890585  0.32249501     0.75100
O822        O  0.91278458  0.78826113  0.35627014    -0.58600
C823        C  0.92311994  0.77405474  0.30387957     0.75100
C824        C  0.95375087  0.80643531  0.33565715     0.77500
Cd825      Cd  0.91951799  0.79932509  0.32863578     1.37500
O826        O  0.90286373  0.81816895  0.31150803    -0.57500
O827        O  0.94691114  0.81115247  0.32246343    -0.56300
C828        C  0.89909656  0.78205813  0.35203576     0.77500
O829        O  0.94446695  0.79959065  0.34607791    -0.58700
O830        O  0.90759960  0.82636447  0.33618453    -0.57100
O831        O  0.92558260  0.77138921  0.31900544    -0.57100
O832        O  0.89463806  0.78453214  0.33730887    -0.56300
O833        O  0.79722643  0.59517507  0.32326189    -0.57500
C834        C  0.78355996  0.57938343  0.28080546     0.75100
O835        O  0.83976541  0.58514952  0.29047687    -0.58600
C836        C  0.80972741  0.59903230  0.33174101     0.75100
C837        C  0.81569306  0.54457962  0.30933568     0.77500
Cd838      Cd  0.81195450  0.57952153  0.30216466     1.37500
O839        O  0.78263896  0.58456023  0.29543136    -0.57500
O840        O  0.80572107  0.55366225  0.31703521    -0.56300
C841        C  0.83586296  0.59857250  0.28359077     0.77500
O842        O  0.82469462  0.55175880  0.29888310    -0.58700
O843        O  0.79749302  0.57416500  0.27624934    -0.57100
O844        O  0.82335648  0.59305701  0.32709952    -0.57100
O845        O  0.82110176  0.60317065  0.28546522    -0.56300
O846        O  0.89871886  0.69686393  0.18562978    -0.57500
C847        C  0.91430701  0.70917648  0.23082934     0.75100
O848        O  0.90146327  0.65517920  0.22250029    -0.58600
C849        C  0.89371923  0.68450431  0.17761308     0.75100
C850        C  0.94510675  0.67162733  0.20387820     0.77500
Cd851      Cd  0.91078488  0.68116442  0.20905266     1.37500
O852        O  0.90911077  0.71077187  0.21622016    -0.57500
O853        O  0.93877816  0.68388622  0.19668797    -0.56300
C854        C  0.88795602  0.66089270  0.22776771     0.77500
O855        O  0.93540109  0.66326587  0.21269106    -0.58700
O856        O  0.91791613  0.69473883  0.23526071    -0.57100
O857        O  0.89722528  0.67062922  0.18373435    -0.57100
O858        O  0.88492182  0.67567644  0.22403620    -0.56300
O859        O  0.58987511  0.79459291  0.29762485    -0.57500
C860        C  0.60956035  0.81918208  0.33409758     0.75100
O861        O  0.59833057  0.85195893  0.29760922    -0.58600
C862        C  0.58623163  0.79669209  0.28260557     0.75100
C863        C  0.55437363  0.83009504  0.31119399     0.77500
Cd864      Cd  0.58902895  0.82388895  0.30508834     1.37500
O865        O  0.60715315  0.80794518  0.32363261    -0.57500
O866        O  0.56197489  0.81839039  0.31806604    -0.56300
C867        C  0.60855655  0.84718496  0.28688653     0.77500
O868        O  0.56299665  0.83950566  0.30233250    -0.58700
O869        O  0.60202410  0.83254531  0.33150964    -0.57100
O870        O  0.58364382  0.81134098  0.27809298    -0.57100
O871        O  0.60972789  0.83183862  0.28485775    -0.56300
O872        O  0.69979959  0.89869075  0.18347326    -0.57500
C873        C  0.71855886  0.91775741  0.22623758     0.75100
O874        O  0.67387591  0.94210605  0.20672727    -0.58600
C875        C  0.68635464  0.89789072  0.17553786     0.75100
C876        C  0.66876000  0.89582005  0.22659206     0.77500
Cd877      Cd  0.68931863  0.91594831  0.20596218     1.37500
O878        O  0.71911438  0.91129729  0.21207506    -0.57500
O879        O  0.68087735  0.89028881  0.21860573    -0.56300
C880        C  0.68404419  0.94999340  0.19794841     0.77500
O881        O  0.66583330  0.91102653  0.22503844    -0.58700
O882        O  0.70476871  0.92342818  0.23062281    -0.57100
O883        O  0.67447002  0.90620307  0.18121482    -0.57100
O884        O  0.69604549  0.94188071  0.19226979    -0.56300
O885        O  0.70573711  0.58671550  0.20935198    -0.57500
C886        C  0.66601502  0.60255986  0.18061818     0.75100
O887        O  0.71175650  0.59040689  0.15529336    -0.58600
C888        C  0.71939386  0.57971146  0.20650654     0.75100
C889        C  0.68651873  0.54963559  0.17648168     0.77500
Cd890      Cd  0.69580065  0.58359956  0.18054822     1.37500
O891        O  0.67464345  0.60082659  0.19353769    -0.57500
O892        O  0.68226578  0.55809801  0.18881873    -0.56300
C893        C  0.71570858  0.60466884  0.16023711     0.77500
O894        O  0.69439894  0.55715504  0.16531266    -0.58700
O895        O  0.67061524  0.59460066  0.16805361    -0.57100
O896        O  0.72160883  0.57451532  0.19203503    -0.57100
O897        O  0.71009611  0.60898049  0.17406273    -0.56300
O898        O  0.79098105  0.70517448  0.09294617    -0.57500
C899        C  0.82869180  0.67634449  0.10436556     0.75100
O900        O  0.78399487  0.65030948  0.08823041    -0.58600
C901        C  0.77734945  0.70547723  0.08534142     0.75100
C902        C  0.80675543  0.67248680  0.04991935     0.77500
Cd903      Cd  0.79867038  0.67694601  0.08467589     1.37500
O904        O  0.82246957  0.68974091  0.09951834    -0.57500
O905        O  0.81068890  0.68532792  0.05776247    -0.56300
C906        C  0.77757849  0.65395524  0.10193627     0.77500
O907        O  0.79974187  0.66138991  0.05825129    -0.58700
O908        O  0.82158349  0.66343510  0.09938896    -0.57100
O909        O  0.77367159  0.69267610  0.07729901    -0.57100
O910        O  0.78094946  0.66805827  0.10752179    -0.56300
O911        O  0.59994235  0.68594139  0.20034253    -0.57500
C912        C  0.58397763  0.73276453  0.20827390     0.75100
O913        O  0.59246079  0.72067108  0.15784695    -0.58600
C914        C  0.60246062  0.67630469  0.18837899     0.75100
C915        C  0.55102562  0.69902689  0.17843856     0.77500
Cd916      Cd  0.58530214  0.70688475  0.18413030     1.37500
O917        O  0.58740519  0.71815886  0.21241628    -0.57500
O918        O  0.55821374  0.69585283  0.19189620    -0.56300
C919        C  0.60756061  0.72244609  0.16153457     0.77500
O920        O  0.55985994  0.70532315  0.16726489    -0.58700
O921        O  0.58101551  0.73516021  0.19319060    -0.57100
O922        O  0.59629280  0.68046274  0.17466231    -0.57100
O923        O  0.61213609  0.71661463  0.17523269    -0.56300
O924        O  0.69973606  0.81881493  0.10217284    -0.57500
C925        C  0.70748133  0.77451719  0.08085226     0.75100
O926        O  0.65477770  0.78994205  0.09002346    -0.58600
C927        C  0.68799759  0.82794589  0.10674628     0.75100
C928        C  0.67919183  0.81124880  0.05096799     0.77500
Cd929      Cd  0.68317593  0.80019515  0.08473800     1.37500
O930        O  0.71085059  0.78754264  0.08870008    -0.57500
O931        O  0.69162163  0.81517154  0.05955236    -0.56300
C932        C  0.65898270  0.78085383  0.10198979     0.77500
O933        O  0.66811988  0.80313272  0.05829815    -0.58700
O934        O  0.69328280  0.77379463  0.07444863    -0.57100
O935        O  0.67396265  0.82460778  0.10076186    -0.57100
O936        O  0.67402861  0.78125092  0.10605828    -0.56300
O937        O  0.09442598  0.29791718  0.18538630    -0.57500
C938        C  0.07720817  0.28778564  0.23023160     0.75100
O939        O  0.08789393  0.34009364  0.21906934    -0.58600
C940        C  0.09669592  0.30974456  0.17554920     0.75100
C941        C  0.04435294  0.31921353  0.20121795     0.77500
Cd942      Cd  0.07931546  0.31358901  0.20630889     1.37500
O943        O  0.08234717  0.28499043  0.21580417    -0.57500
O944        O  0.05149650  0.30647134  0.19591134    -0.56300
C945        C  0.10173358  0.33479826  0.22404617     0.77500
O946        O  0.05357489  0.32993967  0.20778856    -0.58700
O947        O  0.07283582  0.30234925  0.23332344    -0.57100
O948        O  0.08996098  0.32324469  0.17938020    -0.57100
O949        O  0.10516091  0.32012113  0.22038525    -0.56300
O950        O  0.18786684  0.40017392  0.32657412    -0.57500
C951        C  0.20296974  0.41441296  0.28312866     0.75100
O952        O  0.14669609  0.40792818  0.29139128    -0.58600
C953        C  0.17517862  0.39451381  0.33356245     0.75100
C954        C  0.16759825  0.44924130  0.30925873     0.77500
Cd955      Cd  0.17386644  0.41432766  0.30363768     1.37500
O956        O  0.20322739  0.40867465  0.29759024    -0.57500
O957        O  0.17889586  0.44164114  0.31684772    -0.56300
C958        C  0.15150382  0.39560253  0.28321555     0.77500
O959        O  0.15873631  0.44059858  0.29982914    -0.58700
O960        O  0.18942837  0.42047587  0.27835888    -0.57100
O961        O  0.16150902  0.39876775  0.32732655    -0.57100
O962        O  0.16655567  0.39182537  0.28470542    -0.56300
O963        O  0.17196761  0.30605167  0.10281214    -0.57500
C964        C  0.21813830  0.29387740  0.08429638     0.75100
O965        O  0.19384028  0.33555196  0.06076709    -0.58600
C966        C  0.16329278  0.31884833  0.10468841     0.75100
C967        C  0.21336818  0.33958801  0.10958581     0.77500
Cd968      Cd  0.19415941  0.31975332  0.08728004     1.37500
O969        O  0.20391972  0.29073469  0.08994925    -0.57500
O970        O  0.20836352  0.32527914  0.11297111    -0.56300
C971        C  0.18658447  0.32428022  0.05275693     0.77500
O972        O  0.20895049  0.34536152  0.09573544    -0.58700
O973        O  0.22075266  0.30856786  0.07998558    -0.57100
O974        O  0.16852731  0.33179309  0.09781009    -0.57100
O975        O  0.18223429  0.31179887  0.06094248    -0.56300
O976        O  0.28279499  0.40622520  0.21418123    -0.57500
C977        C  0.32400993  0.39078199  0.18966814     0.75100
O978        O  0.28280778  0.40863998  0.15864782    -0.58600
C979        C  0.27047298  0.41548869  0.21183847     0.75100
C980        C  0.30608026  0.44538648  0.18372698     0.77500
Cd981      Cd  0.29523409  0.41165623  0.18654331     1.37500
O982        O  0.31399220  0.39298617  0.20136771    -0.57500
O983        O  0.31016686  0.43646370  0.19583569    -0.56300
C984        C  0.27562650  0.39518723  0.16176627     0.77500
O985        O  0.29790071  0.43839901  0.17243803    -0.58700
O986        O  0.32112299  0.39874407  0.17658049    -0.57100
O987        O  0.26997187  0.42290359  0.19819192    -0.57100
O988        O  0.27807641  0.38926410  0.17594698    -0.56300
O989        O  0.29754207  0.17619977  0.10037291    -0.57500
C990        C  0.28241213  0.21965674  0.08420137     0.75100
O991        O  0.33671759  0.21465978  0.09297270    -0.58600
C992        C  0.31041207  0.16831745  0.10420065     0.75100
C993        C  0.31931000  0.19360915  0.05116746     0.77500
Cd994      Cd  0.31132419  0.19892250  0.08576511     1.37500
O995        O  0.28147805  0.20498129  0.08923614    -0.57500
O996        O  0.30621761  0.18797157  0.05744944    -0.56300
C997        C  0.33167894  0.21939369  0.10691758     0.77500
O998        O  0.32901249  0.20082177  0.06100104    -0.58700
O999        O  0.29644522  0.22435770  0.07936973    -0.57100
O1000       O  0.32381449  0.17396627  0.09860139    -0.57100
O1001       O  0.31750803  0.21446753  0.11105925    -0.56300
O1002       O  0.39701983  0.31538095  0.19208204    -0.57500
C1003       C  0.41866779  0.27188680  0.20439886     0.75100
O1004       O  0.40936457  0.28232448  0.15147848    -0.58600
C1005       C  0.39667074  0.32564352  0.18037863     0.75100
C1006       C  0.44970304  0.30346521  0.17368964     0.77500
Cd1007     Cd  0.41530741  0.29556815  0.17836881     1.37500
O1008       O  0.41284741  0.28603872  0.20723194    -0.57500
O1009       O  0.44220443  0.30722500  0.18679181    -0.56300
C1010       C  0.39518920  0.27711196  0.15539578     0.77500
O1011       O  0.44108433  0.29686096  0.16247868    -0.58700
O1012       O  0.42292976  0.26898066  0.18973897    -0.57100
O1013       O  0.40570273  0.32243425  0.16812590    -0.57100
O1014       O  0.39033483  0.28067029  0.16972534    -0.56300
O1015       O  0.29211673  0.08350809  0.21060009    -0.57500
C1016       C  0.32139684  0.09848797  0.17235899     0.75100
O1017       O  0.34825891  0.08290169  0.21529874    -0.58600
C1018       C  0.29348924  0.07659307  0.22451037     0.75100
C1019       C  0.32487463  0.04424899  0.19211426     0.77500
Cd1020     Cd  0.32099023  0.07826043  0.20177037     1.37500
O1021       O  0.30812289  0.09536513  0.17989497    -0.57500
O1022       O  0.31263194  0.05277454  0.18763568    -0.56300
C1023       C  0.34405357  0.09635424  0.22190447     0.77500
O1024       O  0.33573232  0.05161773  0.20055310    -0.58700
O1025       O  0.33424020  0.09168254  0.17797936    -0.57100
O1026       O  0.30737477  0.07025592  0.22768489    -0.57100
O1027       O  0.32949421  0.10113750  0.21907348    -0.56300
O1028       O  0.40587531  0.21033606  0.29325928    -0.57500
C1029       C  0.39322772  0.18014977  0.33167757     0.75100
O1030       O  0.40570021  0.15563150  0.28488824    -0.58600
C1031       C  0.41260705  0.20916305  0.27926271     0.75100
C1032       C  0.44541132  0.17928472  0.30930492     0.77500
Cd1033     Cd  0.41085662  0.18133993  0.30096786     1.37500
O1034       O  0.39365159  0.19307799  0.32301298    -0.57500
O1035       O  0.43626012  0.19094806  0.31393206    -0.56300
C1036       C  0.39094239  0.15931388  0.28125180     0.77500
O1037       O  0.43840087  0.16781804  0.30136337    -0.58700
O1038       O  0.40153400  0.16807242  0.32646717    -0.57100
O1039       O  0.41827019  0.19521121  0.27547216    -0.57100
O1040       O  0.38567066  0.17277847  0.28690720    -0.56300
O1041       O  0.18552747  0.08751571  0.31376733    -0.57500
C1042       C  0.23186916  0.07063877  0.30092830     0.75100
O1043       O  0.22043609  0.07888945  0.35476070    -0.58600
C1044       C  0.17768345  0.09060836  0.32684838     0.75100
C1045       C  0.20256912  0.03760288  0.33284826     0.77500
Cd1046     Cd  0.20839471  0.07229458  0.32755132     1.37500
O1047       O  0.21764083  0.07667419  0.29861955    -0.57500
O1048       O  0.19871893  0.04466613  0.31950808    -0.56300
C1049       C  0.22707776  0.09220959  0.35019362     0.77500
O1050       O  0.20824371  0.04675096  0.34409855    -0.58700
O1051       O  0.23498995  0.06559284  0.31533104    -0.57100
O1052       O  0.18347234  0.08439071  0.33989292    -0.57100
O1053       O  0.22514874  0.09610142  0.33523698    -0.56300
O1054       O  0.31616172  0.19786835  0.40522866    -0.57500
C1055       C  0.27085669  0.20617482  0.42484798     0.75100
O1056       O  0.28275627  0.15511360  0.41444872    -0.58600
C1057       C  0.32610511  0.18621561  0.40251440     0.75100
C1058       C  0.30471067  0.17523807  0.45538514     0.77500
Cd1059     Cd  0.29632162  0.18158730  0.42129345     1.37500
O1060       O  0.28529593  0.21026888  0.42060448    -0.57500
O1061       O  0.30699019  0.18901747  0.44857495    -0.56300
C1062       C  0.27947892  0.15900062  0.39968876     0.77500
O1063       O  0.29937669  0.16386754  0.44616463    -0.58700
O1064       O  0.26849342  0.19103392  0.42737377    -0.57100
O1065       O  0.32284628  0.17265675  0.40940965    -0.57100
O1066       O  0.28411742  0.17309983  0.39509672    -0.56300
O1067       O  0.10695911  0.16985408  0.30429804    -0.57500
C1068       C  0.08734325  0.21283001  0.29233055     0.75100
O1069       O  0.06410417  0.18938725  0.33551043    -0.58600
C1070       C  0.10963649  0.16046587  0.31641435     0.75100
C1071       C  0.10997951  0.20903081  0.34227103     0.77500
Cd1072     Cd  0.09016268  0.19012070  0.31941336     1.37500
O1073       O  0.09405098  0.19892561  0.29059921    -0.57500
O1074       O  0.11487258  0.20522863  0.32802467    -0.56300
C1075       C  0.05563804  0.18219272  0.32456906     0.77500
O1076       O  0.09577314  0.20396042  0.34622153    -0.58700
O1077       O  0.08192532  0.21612831  0.30651918    -0.57100
O1078       O  0.10254360  0.16427312  0.32974041    -0.57100
O1079       O  0.06338925  0.17769870  0.31185866    -0.56300
O1080       O  0.20244168  0.29118824  0.41771095    -0.57500
C1081       C  0.16923575  0.32513477  0.40317904     0.75100
O1082       O  0.14635683  0.28056243  0.41622791    -0.58600
C1083       C  0.20288282  0.27703111  0.42417748     0.75100
C1084       C  0.16587450  0.30039181  0.45785551     0.77500
Cd1085     Cd  0.17229517  0.29531078  0.42295491     1.37500
O1086       O  0.18312658  0.31909818  0.40688478    -0.57500
O1087       O  0.17708836  0.30815760  0.45034901    -0.56300
C1088       C  0.15228151  0.27223586  0.40450195     0.77500
O1089       O  0.15703521  0.29106018  0.44907766    -0.58700
O1090       O  0.15686418  0.31796108  0.40932267    -0.57100
O1091       O  0.18952689  0.27189095  0.43028179    -0.57100
O1092       O  0.16728006  0.27482128  0.40117562    -0.56300
O1093       O  0.40722996  0.80576254  0.33199902    -0.57500
C1094       C  0.42518906  0.78955168  0.28561388     0.75100
O1095       O  0.41757829  0.84107992  0.28971958    -0.58600
C1096       C  0.40519947  0.81949660  0.33908063     0.75100
C1097       C  0.45684603  0.82092555  0.31613325     0.77500
Cd1098     Cd  0.42250899  0.81693474  0.30799278     1.37500
O1099       O  0.41619522  0.78832093  0.29830724    -0.57500
O1100       O  0.44863093  0.80845272  0.32052251    -0.56300
C1101       C  0.40260648  0.83750862  0.28697455     0.77500
O1102       O  0.44890464  0.83216623  0.30877383    -0.58700
O1103       O  0.43272092  0.80300057  0.28378950    -0.57100
O1104       O  0.41177800  0.83179004  0.33216696    -0.57100
O1105       O  0.39714214  0.82481943  0.29409143    -0.56300
O1106       O  0.31814751  0.89432245  0.18423557    -0.57500
C1107       C  0.30271398  0.91371552  0.22458114     0.75100
O1108       O  0.35950076  0.90788580  0.21504869    -0.58600
C1109       C  0.33060315  0.89183840  0.17530629     0.75100
C1110       C  0.33613798  0.94768985  0.19543593     0.77500
Cd1111     Cd  0.33144523  0.91335045  0.20368786     1.37500
O1112       O  0.30209694  0.90840504  0.20995476    -0.57500
O1113       O  0.32367263  0.93976503  0.19045014    -0.56300
C1114       C  0.35479453  0.89655678  0.22461484     0.77500
O1115       O  0.34660355  0.93960797  0.20364349    -0.58700
O1116       O  0.31646001  0.91942791  0.22930830    -0.57100
O1117       O  0.34340733  0.89992746  0.17898275    -0.57100
O1118       O  0.33958283  0.89323114  0.22435066    -0.56300
O1119       O  0.40901128  0.70558334  0.21794393    -0.57500
C1120       C  0.40008196  0.66653892  0.19286953     0.75100
O1121       O  0.41280616  0.70573293  0.16203672    -0.58600
C1122       C  0.41827913  0.71804923  0.21890903     0.75100
C1123       C  0.45394351  0.68965532  0.18723922     0.77500
Cd1124     Cd  0.41903648  0.69651964  0.19071290     1.37500
O1125       O  0.40508636  0.67405859  0.20554669    -0.57500
O1126       O  0.44524362  0.68267547  0.19807646    -0.56300
C1127       C  0.40106869  0.71510251  0.16614706     0.77500
O1128       O  0.44636185  0.69912201  0.17747287    -0.58700
O1129       O  0.40458829  0.67239909  0.17918031    -0.57100
O1130       O  0.42780783  0.72050597  0.20685252    -0.57100
O1131       O  0.39801594  0.71592493  0.18137046    -0.56300
O1132       O  0.30287225  0.81117468  0.10770024    -0.57500
C1133       C  0.28751201  0.76769676  0.09175896     0.75100
O1134       O  0.33279007  0.78620569  0.06704165    -0.58600
C1135       C  0.31590038  0.81890722  0.11137088     0.75100
C1136       C  0.33814817  0.77010420  0.11415643     0.77500
Cd1137     Cd  0.31644725  0.78865662  0.09273417     1.37500
O1138       O  0.28670237  0.78235818  0.09681358    -0.57500
O1139       O  0.32406480  0.77504914  0.11851511    -0.56300
C1140       C  0.32353128  0.79492206  0.05803969     0.77500
O1141       O  0.34239122  0.77351527  0.09956312    -0.58700
O1142       O  0.30153902  0.76291343  0.08700201    -0.57100
O1143       O  0.32915064  0.81333691  0.10538215    -0.57100
O1144       O  0.31139295  0.80151212  0.06520958    -0.56300
O1145       O  0.17734736  0.68192400  0.10871942    -0.57500
C1146       C  0.22101374  0.69531447  0.08638428     0.75100
O1147       O  0.21162472  0.64247876  0.09147675    -0.58600
C1148       C  0.16695859  0.67031634  0.10846680     0.75100
C1149       C  0.18710579  0.66453698  0.05494496     0.77500
Cd1150     Cd  0.19683852  0.66914717  0.08889172     1.37500
O1151       O  0.20700749  0.69814662  0.09263378    -0.57500
O1152       O  0.18515200  0.67811140  0.06228491    -0.56300
C1153       C  0.21669164  0.64509445  0.10598486     0.77500
O1154       O  0.19300239  0.65293443  0.06348220    -0.58700
O1155       O  0.22331982  0.68088480  0.08116840    -0.57100
O1156       O  0.17012516  0.65857456  0.09880317    -0.57100
O1157       O  0.21208697  0.65839198  0.11254325    -0.56300
O1158       O  0.32530222  0.59272764  0.19613339    -0.57500
C1159       C  0.28241374  0.57615301  0.21343991     0.75100
O1160       O  0.28700975  0.58546526  0.15812832    -0.58600
C1161       C  0.33197787  0.59679192  0.18269240     0.75100
C1162       C  0.30661009  0.54292050  0.17658459     0.77500
Cd1163     Cd  0.30188849  0.57757996  0.18381237     1.37500
O1164       O  0.29717246  0.58121879  0.21395391    -0.57500
O1165       O  0.31411453  0.54994076  0.18830741    -0.56300
C1166       C  0.27965370  0.59754518  0.16461760     0.77500
O1167       O  0.29780775  0.55209989  0.16760632    -0.58700
O1168       O  0.27720357  0.57140810  0.19955465    -0.57100
O1169       O  0.32522413  0.59128757  0.16976098    -0.57100
O1170       O  0.28305755  0.60045662  0.17952506    -0.56300
O1171       O  0.08156488  0.70313466  0.21713461    -0.57500
C1172       C  0.09866363  0.67789791  0.17862921     0.75100
O1173       O  0.08213682  0.64611331  0.22019850    -0.58600
C1174       C  0.07651605  0.70046680  0.23159733     0.75100
C1175       C  0.04340590  0.67117075  0.19891388     0.77500
Cd1176     Cd  0.07823722  0.67401768  0.20762740     1.37500
O1177       O  0.09672481  0.68914605  0.18918118    -0.57500
O1178       O  0.05289889  0.68154435  0.19225986    -0.56300
C1179       C  0.09691200  0.64865494  0.22461425     0.77500
O1180       O  0.05020195  0.66118103  0.20874118    -0.58700
O1181       O  0.09038244  0.66487581  0.18090631    -0.57100
O1182       O  0.07259997  0.68579980  0.23482780    -0.57100
O1183       O  0.10286273  0.66250331  0.22087055    -0.56300
O1184       O  0.21162525  0.58318077  0.29167992    -0.57500
C1185       C  0.18407742  0.59963814  0.33144395     0.75100
O1186       O  0.15595476  0.58679010  0.28751385    -0.58600
C1187       C  0.20903731  0.57525943  0.27848572     0.75100
C1188       C  0.17730876  0.54640325  0.31174605     0.77500
Cd1189     Cd  0.18264209  0.58015949  0.30162016     1.37500
O1190       O  0.19667401  0.59769211  0.32248329    -0.57500
O1191       O  0.18968475  0.55465181  0.31644278    -0.56300
C1192       C  0.16151305  0.59930889  0.28007849     0.77500
O1193       O  0.16688831  0.55398656  0.30293342    -0.58700
O1194       O  0.17107697  0.59241811  0.32671730    -0.57100
O1195       O  0.19473148  0.56938254  0.27662034    -0.57100
O1196       O  0.17630701  0.60310774  0.28320069    -0.56300
O1197       O  0.30122968  0.78905430  0.42588234    -0.57500
C1198       C  0.33712792  0.81577810  0.40947496     0.75100
O1199       O  0.29545146  0.84609258  0.42249960    -0.58600
C1200       C  0.28635463  0.79006729  0.43037136     0.75100
C1201       C  0.31537181  0.82203521  0.46423525     0.77500
Cd1202     Cd  0.30763519  0.81847262  0.42940536     1.37500
O1203       O  0.32706838  0.80415717  0.41168853    -0.57500
O1204       O  0.32064868  0.81019309  0.45571605    -0.56300
C1205       C  0.28751240  0.84101963  0.41002457     0.77500
O1206       O  0.30720244  0.83282310  0.45651046    -0.58700
O1207       O  0.33396432  0.82904242  0.41696901    -0.57100
O1208       O  0.28151858  0.80408737  0.43504853    -0.57100
O1209       O  0.28896672  0.82591748  0.40678751    -0.56300
O1210       O  0.22239061  0.90455235  0.29280871    -0.57500
C1211       C  0.18059582  0.88806019  0.31635739     0.75100
O1212       O  0.22454760  0.90045452  0.34816039    -0.58600
C1213       C  0.23621476  0.91065749  0.29677196     0.75100
C1214       C  0.20114446  0.94022473  0.32447734     0.77500
Cd1215     Cd  0.21081670  0.90626342  0.32114633     1.37500
O1216       O  0.19153023  0.88901289  0.30530999    -0.57500
O1217       O  0.19856009  0.93191315  0.31159267    -0.56300
C1218       C  0.22898146  0.88600897  0.34438756     0.77500
O1219       O  0.20741269  0.93254808  0.33654954    -0.58700
O1220       O  0.18347905  0.89582529  0.32956849    -0.57100
O1221       O  0.23798560  0.91463585  0.31170097    -0.57100
O1222       O  0.22444717  0.88093749  0.33036966    -0.56300
O1223       O  0.20473962  0.68032643  0.40090554    -0.57500
C1224       C  0.21296730  0.72531552  0.42165019     0.75100
O1225       O  0.16227498  0.71491313  0.41081484    -0.58600
C1226       C  0.19311772  0.67020881  0.39845156     0.75100
C1227       C  0.18273517  0.68990849  0.45098261     0.77500
Cd1228     Cd  0.18843637  0.69992716  0.41726186     1.37500
O1229       O  0.21716079  0.71106396  0.41704390    -0.57500
O1230       O  0.19585972  0.68648679  0.44338488    -0.56300
C1231       C  0.16598156  0.71770938  0.39592218     0.77500
O1232       O  0.17169386  0.69721946  0.44271119    -0.58700
O1233       O  0.19778136  0.72750193  0.42417108    -0.57100
O1234       O  0.17946350  0.67356202  0.40519271    -0.57100
O1235       O  0.17952300  0.71179548  0.39103990    -0.56300
O1236       O  0.10502346  0.81561462  0.31107425    -0.57500
C1237       C  0.08193177  0.77547859  0.29451776     0.75100
O1238       O  0.09023589  0.78294126  0.35078347    -0.58600
C1239       C  0.10606051  0.82499161  0.32344237     0.75100
C1240       C  0.05125774  0.80581685  0.32736243     0.77500
Cd1241     Cd  0.08529463  0.79601692  0.32338238     1.37500
O1242       O  0.08960228  0.78901202  0.29391729    -0.57500
O1243       O  0.06039332  0.81176947  0.31626893    -0.56300
C1244       C  0.10300034  0.77516397  0.34640303     0.77500
O1245       O  0.05807251  0.79587873  0.33724310    -0.58700
O1246       O  0.07567105  0.77175394  0.30826345    -0.57100
O1247       O  0.09708772  0.82128228  0.33560464    -0.57100
O1248       O  0.10731470  0.77699106  0.33158010    -0.56300
C1249       C  0.11253418  0.76459871  0.35785459    -0.04900
C1250       C  0.10750831  0.76232431  0.37424220    -0.04800
C1251       C  0.11678981  0.75253149  0.38501565    -0.23000
C1252       C  0.13127766  0.74484735  0.37959255     0.19200
C1253       C  0.13635652  0.74703595  0.36311272     0.16400
C1254       C  0.12698194  0.75682762  0.35239730    -0.18000
C1255       C  0.15080156  0.73946560  0.35759190    -0.19900
C1256       C  0.16021044  0.72985203  0.36828158    -0.12400
C1257       C  0.15539251  0.72755183  0.38473075     0.04200
C1258       C  0.14082885  0.73509862  0.39032371    -0.24600
H1259       H  0.09642138  0.76816287  0.37875126     0.09300
H1260       H  0.11266765  0.75101699  0.39759255     0.12900
H1261       H  0.13102639  0.75847199  0.33980108     0.12900
H1262       H  0.15487684  0.74103240  0.34500203     0.12600
H1263       H  0.17137040  0.72425677  0.36364325     0.13200
H1264       H  0.13701381  0.73350728  0.40299388     0.15100
C1265       C  0.16559314  0.87790715  0.31414451    -0.04900
C1266       C  0.16272802  0.86969818  0.29918820    -0.04800
C1267       C  0.14972181  0.85853263  0.29763939    -0.23000
C1268       C  0.13941994  0.85526666  0.31106871     0.19200
C1269       C  0.14171722  0.86400626  0.32592856     0.16400
C1270       C  0.15467446  0.87538578  0.32731749    -0.18000
C1271       C  0.13144595  0.86070782  0.33937283    -0.19900
C1272       C  0.11949661  0.84836939  0.33835995    -0.12400
C1273       C  0.11751917  0.83916498  0.32385725     0.04200
C1274       C  0.12729096  0.84297525  0.31009832    -0.24600
H1275       H  0.17085050  0.87154531  0.28880232     0.09300
H1276       H  0.14805825  0.85206029  0.28610313     0.12900
H1277       H  0.15668753  0.88170986  0.33888866     0.12900
H1278       H  0.13296904  0.86734014  0.35083580     0.12600
H1279       H  0.11209235  0.84573187  0.34910503     0.13200
H1280       H  0.12585054  0.83601566  0.29881374     0.15100
C1281       C  0.27506311  0.77582555  0.42956546    -0.04900
C1282       C  0.28106154  0.75999391  0.42616025    -0.04800
C1283       C  0.27018531  0.74678993  0.42412696    -0.23000
C1284       C  0.25311587  0.74923245  0.42531754     0.19200
C1285       C  0.24703321  0.76509746  0.42891654     0.16400
C1286       C  0.25801413  0.77820800  0.43114867    -0.18000
C1287       C  0.23002880  0.76768604  0.42999438    -0.19900
C1288       C  0.21909601  0.75469876  0.42757415    -0.12400
C1289       C  0.22491776  0.73884135  0.42401627     0.04200
C1290       C  0.24200619  0.73617369  0.42286914    -0.24600
H1291       H  0.29416491  0.75785917  0.42487459     0.09300
H1292       H  0.27510987  0.73473092  0.42140778     0.12900
H1293       H  0.25323240  0.79037791  0.43366645     0.12900
H1294       H  0.22516473  0.77978127  0.43267217     0.12600
H1295       H  0.20600705  0.75710917  0.42846740     0.13200
H1296       H  0.24663795  0.72400019  0.42011908     0.15100
C1297       C  0.27706939  0.85189763  0.39963613    -0.04900
C1298       C  0.27453494  0.86847714  0.40373154    -0.04800
C1299       C  0.26448005  0.87850380  0.39388034    -0.23000
C1300       C  0.25680234  0.87214845  0.37972440     0.19200
C1301       C  0.25941711  0.85553848  0.37544717     0.16400
C1302       C  0.26945095  0.84556925  0.38540023    -0.18000
C1303       C  0.25195883  0.84912986  0.36126036    -0.19900
C1304       C  0.24199213  0.85905105  0.35136006    -0.12400
C1305       C  0.23916027  0.87558398  0.35545845     0.04200
C1306       C  0.24661915  0.88206627  0.36973917    -0.24600
H1307       H  0.28026312  0.87367318  0.41459902     0.09300
H1308       H  0.26269226  0.89122221  0.39735015     0.12900
H1309       H  0.27132738  0.83283092  0.38201846     0.12900
H1310       H  0.25387377  0.83642971  0.35777757     0.12600
H1311       H  0.23648834  0.85374537  0.34042818     0.13200
H1312       H  0.24467485  0.89483063  0.37296478     0.15100
C1313       C  0.18427571  0.61012571  0.34636184    -0.04900
C1314       C  0.17000995  0.61156094  0.35602729    -0.04800
C1315       C  0.16938642  0.62266768  0.36910431    -0.23000
C1316       C  0.18298554  0.63266679  0.37270671     0.19200
C1317       C  0.19767596  0.63082239  0.36358344     0.16400
C1318       C  0.19827573  0.61947978  0.35053786    -0.18000
C1319       C  0.21126813  0.64084737  0.36723324    -0.19900
C1320       C  0.21000950  0.65318411  0.37913960    -0.12400
C1321       C  0.19517261  0.65567447  0.38767516     0.04200
C1322       C  0.18187137  0.64496986  0.38476671    -0.24600
H1323       H  0.15912087  0.60438526  0.35320429     0.09300
H1324       H  0.15807464  0.62380700  0.37605840     0.12900
H1325       H  0.20939147  0.61842550  0.34325350     0.12900
H1326       H  0.22268621  0.63953063  0.36048732     0.12600
H1327       H  0.22048610  0.66116819  0.38123705     0.13200
H1328       H  0.17039800  0.64667068  0.39134470     0.15100
C1329       C  0.07512786  0.71357384  0.24415657    -0.04900
C1330       C  0.06695118  0.71019976  0.25899418    -0.04800
C1331       C  0.06582131  0.72206615  0.27128868    -0.23000
C1332       C  0.07304201  0.73752164  0.26911201     0.19200
C1333       C  0.08110688  0.74126196  0.25417383     0.16400
C1334       C  0.08198342  0.72928866  0.24168581    -0.18000
C1335       C  0.08847372  0.75675355  0.25222318    -0.19900
C1336       C  0.08835447  0.76813803  0.26515906    -0.12400
C1337       C  0.08074284  0.76428033  0.28019895     0.04200
C1338       C  0.07275153  0.74907200  0.28188876    -0.24600
H1339       H  0.06144571  0.69827796  0.26116212     0.09300
H1340       H  0.05955945  0.71902855  0.28264931     0.12900
H1341       H  0.08830794  0.73204908  0.23028524     0.12900
H1342       H  0.09466619  0.75991115  0.24086056     0.12600
H1343       H  0.09453870  0.77981217  0.26352312     0.13200
H1344       H  0.06677740  0.74595304  0.29338976     0.15100
C1345       C  0.10673493  0.63649148  0.23403718    -0.04900
C1346       C  0.09911656  0.62343085  0.24240352    -0.04800
C1347       C  0.10833915  0.61310651  0.25273230    -0.23000
C1348       C  0.12534151  0.61565508  0.25483797     0.19200
C1349       C  0.13316014  0.62839203  0.24597179     0.16400
C1350       C  0.12385515  0.63863251  0.23562814    -0.18000
C1351       C  0.15010452  0.63102105  0.24794275    -0.19900
C1352       C  0.15917824  0.62148138  0.25898086    -0.12400
C1353       C  0.15155384  0.60900963  0.26821232     0.04200
C1354       C  0.13461252  0.60596796  0.26586942    -0.24600
H1355       H  0.08594375  0.62153075  0.24137884     0.09300
H1356       H  0.10211145  0.60336643  0.25934689     0.12900
H1357       H  0.12990688  0.64857518  0.22913180     0.12900
H1358       H  0.15630724  0.64065743  0.24114767     0.12600
H1359       H  0.17222630  0.62395357  0.26035127     0.13200
H1360       H  0.12860894  0.59630736  0.27280857     0.15100
C1361       C  0.22167304  0.57318614  0.26556543    -0.04900
C1362       C  0.21722380  0.56558491  0.25066901    -0.04800
C1363       C  0.22847991  0.56423051  0.23785502    -0.23000
C1364       C  0.24445860  0.57043285  0.23965413     0.19200
C1365       C  0.24929464  0.57785479  0.25463366     0.16400
C1366       C  0.23783762  0.57920441  0.26755050    -0.18000
C1367       C  0.26540168  0.58400426  0.25624901    -0.19900
C1368       C  0.27642412  0.58312594  0.24301948    -0.12400
C1369       C  0.27150297  0.57607686  0.22799318     0.04200
C1370       C  0.25554378  0.56956645  0.22653455    -0.24600
H1371       H  0.20487710  0.56087337  0.24877893     0.09300
H1372       H  0.22460820  0.55849681  0.22644636     0.12900
H1373       H  0.24140785  0.58509687  0.27897548     0.12900
H1374       H  0.26938857  0.58969650  0.26763411     0.12600
H1375       H  0.28866965  0.58824097  0.24443377     0.13200
H1376       H  0.25159149  0.56405690  0.21503487     0.15100
C1377       C  0.11052086  0.67979123  0.16486618    -0.04900
C1378       C  0.12020556  0.69408716  0.16374864    -0.04800
C1379       C  0.13264083  0.69543794  0.15196123    -0.23000
C1380       C  0.13568780  0.68250123  0.14102735     0.19200
C1381       C  0.12569008  0.66827975  0.14163386     0.16400
C1382       C  0.11314523  0.66702282  0.15350790    -0.18000
C1383       C  0.12873060  0.65536443  0.13065502    -0.19900
C1384       C  0.14184947  0.65629423  0.11956795    -0.12400
C1385       C  0.15220300  0.67014881  0.11920880     0.04200
C1386       C  0.14884053  0.68336744  0.12981759    -0.24600
H1387       H  0.11846034  0.70412393  0.17230348     0.09300
H1388       H  0.14011206  0.70646614  0.15164348     0.12900
H1389       H  0.10577996  0.65593705  0.15420853     0.12900
H1390       H  0.12117302  0.64439383  0.13086526     0.12600
H1391       H  0.14412367  0.64595562  0.11151433     0.13200
H1392       H  0.15668631  0.69414549  0.12964823     0.15100
C1393       C  0.22776517  0.63361479  0.11477140    -0.04900
C1394       C  0.23465019  0.61994561  0.10677471    -0.04800
C1395       C  0.24614057  0.60995339  0.11489906    -0.23000
C1396       C  0.25093311  0.61349955  0.13113393     0.19200
C1397       C  0.24377387  0.62703590  0.13931235     0.16400
C1398       C  0.23224413  0.63690380  0.13113789    -0.18000
C1399       C  0.24842970  0.63069615  0.15548988    -0.19900
C1400       C  0.26018014  0.62112806  0.16352759    -0.12400
C1401       C  0.26751559  0.60768012  0.15557799     0.04200
C1402       C  0.26280229  0.60387986  0.13932701    -0.24600
H1403       H  0.23140191  0.61717589  0.09414169     0.09300
H1404       H  0.25143385  0.59960568  0.10842095     0.12900
H1405       H  0.22699072  0.64737675  0.13746424     0.12900
H1406       H  0.24303132  0.64102168  0.16192240     0.12600
H1407       H  0.26351560  0.62428017  0.17604811     0.13200
H1408       H  0.26830737  0.59347962  0.13310353     0.15100
C1409       C  0.27299373  0.75664049  0.09150245    -0.04900
C1410       C  0.25793461  0.76136859  0.09860008    -0.04800
C1411       C  0.24446537  0.75055978  0.09874943    -0.23000
C1412       C  0.24582144  0.73483902  0.09177583     0.19200
C1413       C  0.26087694  0.73014432  0.08443628     0.16400
C1414       C  0.27428366  0.74101136  0.08435342    -0.18000
C1415       C  0.26241524  0.71454521  0.07742996    -0.19900
C1416       C  0.24929284  0.70352220  0.07789806    -0.12400
C1417       C  0.23428937  0.70781175  0.08535429     0.04200
C1418       C  0.23255203  0.72363264  0.09216912    -0.24600
H1419       H  0.25662665  0.77335740  0.10420356     0.09300
H1420       H  0.23305349  0.75444328  0.10442799     0.12900
H1421       H  0.28579716  0.73721863  0.07879484     0.12900
H1422       H  0.27385682  0.71077993  0.07172379     0.12600
H1423       H  0.25100182  0.69147529  0.07253519     0.13200
H1424       H  0.22106283  0.72710225  0.09797208     0.15100
C1425       C  0.38902940  0.65212148  0.19398415    -0.04900
C1426       C  0.38264682  0.64720636  0.20927908    -0.04800
C1427       C  0.37085103  0.63472318  0.21022563    -0.23000
C1428       C  0.36520015  0.62694696  0.19588196     0.19200
C1429       C  0.37193706  0.63142061  0.18049756     0.16400
C1430       C  0.38383461  0.64392337  0.17965229    -0.18000
C1431       C  0.36627915  0.62366975  0.16615089    -0.19900
C1432       C  0.35363335  0.61203354  0.16694895    -0.12400
C1433       C  0.34648039  0.60784550  0.18211248     0.04200
C1434       C  0.35258461  0.61514075  0.19660214    -0.24600
H1435       H  0.38643985  0.65332767  0.22049942     0.09300
H1436       H  0.36587354  0.63141911  0.22213422     0.12900
H1437       H  0.38867329  0.64759110  0.16778565     0.12900
H1438       H  0.37135898  0.62688760  0.15426195     0.12600
H1439       H  0.34919652  0.60656793  0.15562432     0.13200
H1440       H  0.34717295  0.61203489  0.20838028     0.15100
C1441       C  0.39125490  0.72455357  0.15400759    -0.04900
C1442       C  0.39465690  0.72377420  0.13706972    -0.04800
C1443       C  0.38514266  0.73272271  0.12576907    -0.23000
C1444       C  0.37202087  0.74253353  0.13122121     0.19200
C1445       C  0.36849817  0.74326708  0.14823039     0.16400
C1446       C  0.37812938  0.73436854  0.15944992    -0.18000
C1447       C  0.35531377  0.75282043  0.15379834    -0.19900
C1448       C  0.34556716  0.76149102  0.14263202    -0.12400
C1449       C  0.34889984  0.76095100  0.12568471     0.04200
C1450       C  0.36227415  0.75152568  0.12002955    -0.24600
H1451       H  0.40466819  0.71624891  0.13256212     0.09300
H1452       H  0.38801008  0.73192809  0.11278148     0.12900
H1453       H  0.37530843  0.73503278  0.17246500     0.12900
H1454       H  0.35246316  0.75350919  0.16679948     0.12600
H1455       H  0.33540776  0.76872092  0.14729840     0.13200
H1456       H  0.36490298  0.75097146  0.10697224     0.15100
C1457       C  0.28829278  0.91294673  0.23567263    -0.04900
C1458       C  0.27307970  0.90682516  0.23003342    -0.04800
C1459       C  0.25965346  0.90545898  0.24071894    -0.23000
C1460       C  0.26123112  0.91011842  0.25726639     0.19200
C1461       C  0.27646361  0.91637813  0.26299990     0.16400
C1462       C  0.28983878  0.91778330  0.25219625    -0.18000
C1463       C  0.27815670  0.92098864  0.27950972    -0.19900
C1464       C  0.26495359  0.91927768  0.29031439    -0.12400
C1465       C  0.24978068  0.91291138  0.28486156     0.04200
C1466       C  0.24794396  0.90845720  0.26822868    -0.24600
H1467       H  0.27158565  0.90296833  0.21736316     0.09300
H1468       H  0.24809765  0.90062871  0.23607755     0.12900
H1469       H  0.30151810  0.92244263  0.25672780     0.12900
H1470       H  0.28973623  0.92580942  0.28410700     0.12600
H1471       H  0.26670357  0.92281925  0.30304608     0.13200
H1472       H  0.23630268  0.90354844  0.26387553     0.15100
C1473       C  0.33026704  0.87975246  0.16171531    -0.04900
C1474       C  0.34466118  0.87610832  0.15287395    -0.04800
C1475       C  0.34462082  0.86380868  0.14086429    -0.23000
C1476       C  0.33017238  0.85494836  0.13746868     0.19200
C1477       C  0.31555664  0.85873171  0.14608509     0.16400
C1478       C  0.31569431  0.87108775  0.15811759    -0.18000
C1479       C  0.30109920  0.84991021  0.14271293    -0.19900
C1480       C  0.30115511  0.83729947  0.13106635    -0.12400
C1481       C  0.31567244  0.83322260  0.12260216     0.04200
C1482       C  0.33014852  0.84220553  0.12580715    -0.24600
H1483       H  0.35604988  0.88256832  0.15545320     0.09300
H1484       H  0.35593832  0.86109520  0.13437487     0.12900
H1485       H  0.30451068  0.87375446  0.16486911     0.12900
H1486       H  0.28978997  0.85263321  0.14921711     0.12600
H1487       H  0.28987813  0.83049116  0.12893596     0.13200
H1488       H  0.34144032  0.83913077  0.11942371     0.15100
C1489       C  0.41797937  0.72922210  0.23324806    -0.04900
C1490       C  0.40635145  0.72714557  0.24587475    -0.04800
C1491       C  0.40579577  0.73810344  0.25913549    -0.23000
C1492       C  0.41685906  0.75133208  0.25997980     0.19200
C1493       C  0.42876910  0.75329287  0.24745732     0.16400
C1494       C  0.42926715  0.74225545  0.23424568    -0.18000
C1495       C  0.43983355  0.76645391  0.24815397    -0.19900
C1496       C  0.43882148  0.77789025  0.26085266    -0.12400
C1497       C  0.42680543  0.77637158  0.27319583     0.04200
C1498       C  0.41601579  0.76284198  0.27287691    -0.24600
H1499       H  0.39754731  0.71715361  0.24540224     0.09300
H1500       H  0.39659387  0.73635072  0.26860555     0.12900
H1501       H  0.43834425  0.74394774  0.22463096     0.12900
H1502       H  0.44908557  0.76808536  0.23870562     0.12600
H1503       H  0.44735279  0.78812648  0.26085768     0.13200
H1504       H  0.40669131  0.76156040  0.28231053     0.15100
C1505       C  0.39510536  0.82125946  0.35420160    -0.04900
C1506       C  0.39241789  0.83684086  0.36118734    -0.04800
C1507       C  0.38137363  0.83884814  0.37424780    -0.23000
C1508       C  0.37271776  0.82531898  0.38052919     0.19200
C1509       C  0.37582459  0.80952197  0.37400480     0.16400
C1510       C  0.38704911  0.80758128  0.36101349    -0.18000
C1511       C  0.36718604  0.79596782  0.38014383    -0.19900
C1512       C  0.35506590  0.79808542  0.39208906    -0.12400
C1513       C  0.35138508  0.81377394  0.39828718     0.04200
C1514       C  0.36059340  0.82734784  0.39275394    -0.24600
H1515       H  0.39850883  0.84758957  0.35623698     0.09300
H1516       H  0.37925966  0.85105072  0.37911116     0.12900
H1517       H  0.38901447  0.79549423  0.35579384     0.12900
H1518       H  0.36946674  0.78376125  0.37536642     0.12600
H1519       H  0.34827065  0.78740516  0.39621298     0.13200
H1520       H  0.35787014  0.83951257  0.39741954     0.15100
C1521       C  0.39186516  0.84742282  0.27608987    -0.04900
C1522       C  0.37501725  0.84354867  0.27496547    -0.04800
C1523       C  0.36455530  0.85255567  0.26478877    -0.23000
C1524       C  0.37073488  0.86558123  0.25542748     0.19200
C1525       C  0.38765716  0.86963496  0.25630513     0.16400
C1526       C  0.39815374  0.86053854  0.26669837    -0.18000
C1527       C  0.39370662  0.88266698  0.24672785    -0.19900
C1528       C  0.38307706  0.89152138  0.23638776    -0.12400
C1529       C  0.36624145  0.88750904  0.23551859     0.04200
C1530       C  0.36019558  0.87453797  0.24514860    -0.24600
H1531       H  0.36985332  0.83351835  0.28203037     0.09300
H1532       H  0.35161558  0.84929340  0.26421450     0.12900
H1533       H  0.41114216  0.86358342  0.26739763     0.12900
H1534       H  0.40663447  0.88597375  0.24719865     0.12600
H1535       H  0.38801782  0.90148791  0.22907837     0.13200
H1536       H  0.34724309  0.87129714  0.24458558     0.15100
C1537       C  0.12031601  0.21908712  0.35342356    -0.04900
C1538       C  0.13706157  0.22153633  0.34979046    -0.04800
C1539       C  0.14677113  0.23189564  0.35948373    -0.23000
C1540       C  0.13985957  0.24021037  0.37287408     0.19200
C1541       C  0.12310938  0.23762597  0.37687183     0.16400
C1542       C  0.11347769  0.22691852  0.36723422    -0.18000
C1543       C  0.11620318  0.24613130  0.39017827    -0.19900
C1544       C  0.12569920  0.25732969  0.39920487    -0.12400
C1545       C  0.14230146  0.26013955  0.39517664     0.04200
C1546       C  0.14934755  0.25133667  0.38209087    -0.24600
H1547       H  0.14264344  0.21555268  0.33929658     0.09300
H1548       H  0.15960302  0.23367396  0.35628733     0.12900
H1549       H  0.10056902  0.22513978  0.37013267     0.12900
H1550       H  0.10339973  0.24430894  0.39345366     0.12600
H1551       H  0.12000646  0.26387958  0.40928911     0.13200
H1552       H  0.16215298  0.25333009  0.37888862     0.15100
C1553       C  0.25727550  0.21816889  0.42669797    -0.04900
C1554       C  0.24213195  0.21281957  0.43310996    -0.04800
C1555       C  0.22885071  0.22354744  0.43442702    -0.23000
C1556       C  0.23036574  0.23985865  0.42924086     0.19200
C1557       C  0.24552580  0.24556613  0.42290241     0.16400
C1558       C  0.25898865  0.23468832  0.42177723    -0.18000
C1559       C  0.24676424  0.26193709  0.41754405    -0.19900
C1560       C  0.23301775  0.27237312  0.41816083    -0.12400
C1561       C  0.21787787  0.26664871  0.42429938     0.04200
C1562       C  0.21678294  0.25041209  0.43002074    -0.24600
H1563       H  0.24047799  0.20021857  0.43704519     0.09300
H1564       H  0.21730102  0.21900586  0.43930932     0.12900
H1565       H  0.27059652  0.23895450  0.41678205     0.12900
H1566       H  0.25826064  0.26658325  0.41264542     0.12600
H1567       H  0.23417684  0.28484562  0.41367963     0.13200
H1568       H  0.20518705  0.24579824  0.43474181     0.15100
C1569       C  0.19777300  0.95809464  0.32485974    -0.04900
C1570       C  0.19109839  0.96582371  0.31086649    -0.04800
C1571       C  0.18986023  0.98289560  0.31004583    -0.23000
C1572       C  0.19530462  0.99260837  0.32320018     0.19200
C1573       C  0.20147742  0.98499954  0.33759900     0.16400
C1574       C  0.20258421  0.96777204  0.33838808    -0.18000
C1575       C  0.20695618  0.99479165  0.35071870    -0.19900
C1576       C  0.20680696  0.01192382  0.34937577    -0.12400
C1577       C  0.20113243  0.01958360  0.33491788     0.04200
C1578       C  0.19512756  0.00980271  0.32197166    -0.24600
H1579       H  0.18727204  0.95867992  0.30028279     0.09300
H1580       H  0.18503288  0.98851267  0.29894457     0.12900
H1581       H  0.20778265  0.96197217  0.34923044     0.12900
H1582       H  0.21169853  0.98920629  0.36187032     0.12600
H1583       H  0.21151725  0.01917589  0.35952209     0.13200
H1584       H  0.19074193  0.01554175  0.31074454     0.15100
C1585       C  0.16304960  0.10151196  0.32712232    -0.04900
C1586       C  0.15551099  0.10541192  0.34218292    -0.04800
C1587       C  0.14291783  0.11707880  0.34291559    -0.23000
C1588       C  0.13765429  0.12515905  0.32860908     0.19200
C1589       C  0.14482778  0.12106964  0.31331879     0.16400
C1590       C  0.15738447  0.10918307  0.31264865    -0.18000
C1591       C  0.13968940  0.12933951  0.29905380    -0.19900
C1592       C  0.12792736  0.14185907  0.30000334    -0.12400
C1593       C  0.12093666  0.14622352  0.31520135     0.04200
C1594       C  0.12569014  0.13759191  0.32943107    -0.24600
H1595       H  0.15964769  0.09973785  0.35352017     0.09300
H1596       H  0.13756383  0.12005591  0.35474208     0.12900
H1597       H  0.16312392  0.10634368  0.30096579     0.12900
H1598       H  0.14503365  0.12638460  0.28721827     0.12600
H1599       H  0.12450175  0.14832466  0.28885830     0.13200
H1600       H  0.12048374  0.14089944  0.34124112     0.15100
C1601       C  0.27057444  0.14786762  0.38836138    -0.04900
C1602       C  0.26893313  0.15202692  0.37164293    -0.04800
C1603       C  0.26019345  0.14188312  0.36086856    -0.23000
C1604       C  0.25286537  0.12740916  0.36662882     0.19200
C1605       C  0.25444594  0.12305386  0.38340212     0.16400
C1606       C  0.26335148  0.13327582  0.39415675    -0.18000
C1607       C  0.24701718  0.10858883  0.38912898    -0.19900
C1608       C  0.23813797  0.09852469  0.37833185    -0.12400
C1609       C  0.23653430  0.10275228  0.36163581     0.04200
C1610       C  0.24394758  0.11725569  0.35588209    -0.24600
H1611       H  0.27440022  0.16318530  0.36686820     0.09300
H1612       H  0.25910805  0.14539925  0.34805002     0.12900
H1613       H  0.26448607  0.12997784  0.40703277     0.12900
H1614       H  0.24805759  0.10506917  0.40194720     0.12600
H1615       H  0.23249832  0.08743465  0.38306232     0.13200
H1616       H  0.24277510  0.12067361  0.34303777     0.15100
C1617       C  0.38302717  0.17895707  0.34668963    -0.04900
C1618       C  0.37980061  0.16352920  0.35374166    -0.04800
C1619       C  0.36873913  0.16199096  0.36679273    -0.23000
C1620       C  0.36074232  0.17587513  0.37308508     0.19200
C1621       C  0.36434140  0.19153730  0.36648509     0.16400
C1622       C  0.37547808  0.19298735  0.35335615    -0.18000
C1623       C  0.35631257  0.20541344  0.37276214    -0.19900
C1624       C  0.34432489  0.20372202  0.38496143    -0.12400
C1625       C  0.34025242  0.18815423  0.39122410     0.04200
C1626       C  0.34881614  0.17429489  0.38548012    -0.24600
H1627       H  0.38543352  0.15253693  0.34881244     0.09300
H1628       H  0.36616001  0.14989287  0.37171181     0.12900
H1629       H  0.37790917  0.20495913  0.34804734     0.12900
H1630       H  0.35897251  0.21752581  0.36792256     0.12600
H1631       H  0.33793548  0.21458389  0.38921221     0.13200
H1632       H  0.34573501  0.16220787  0.39015256     0.15100
C1633       C  0.27978438  0.07614268  0.23655806    -0.04900
C1634       C  0.26489129  0.08438449  0.23336342    -0.04800
C1635       C  0.25228062  0.08461489  0.24509407    -0.23000
C1636       C  0.25433614  0.07661890  0.26026527     0.19200
C1637       C  0.26916362  0.06806991  0.26347233     0.16400
C1638       C  0.28173182  0.06785418  0.25162904    -0.18000
C1639       C  0.27131455  0.06008329  0.27859533    -0.19900
C1640       C  0.25906920  0.06084431  0.29059085    -0.12400
C1641       C  0.24435849  0.06950877  0.28770841     0.04200
C1642       C  0.24196855  0.07722275  0.27237696    -0.24600
H1643       H  0.26306672  0.09085873  0.22185794     0.09300
H1644       H  0.24100800  0.09121068  0.24237457     0.12900
H1645       H  0.29312811  0.06141942  0.25426165     0.12900
H1646       H  0.28256437  0.05341415  0.28123751     0.12600
H1647       H  0.26118714  0.05469344  0.30222686     0.13200
H1648       H  0.23067737  0.08392552  0.26999263     0.15100
C1649       C  0.32599032  0.02649240  0.18834948    -0.04900
C1650       C  0.31252188  0.01831470  0.18113518    -0.04800
C1651       C  0.31244718  0.00121875  0.17968215    -0.23000
C1652       C  0.32582762  0.99197801  0.18547092     0.19200
C1653       C  0.33982973  0.00012589  0.19190258     0.16400
C1654       C  0.33987003  0.01733332  0.19320580    -0.18000
C1655       C  0.35321138  0.99087476  0.19768487    -0.19900
C1656       C  0.35229547  0.97374032  0.19808629    -0.12400
C1657       C  0.33805593  0.96554345  0.19257308     0.04200
C1658       C  0.32509256  0.97474331  0.18569936    -0.24600
H1659       H  0.30172605  0.02508553  0.17719388     0.09300
H1660       H  0.30166644  0.99519666  0.17459281     0.12900
H1661       H  0.35038272  0.02350461  0.19867829     0.12900
H1662       H  0.36411841  0.99689525  0.20249829     0.12600
H1663       H  0.36252545  0.96692472  0.20327279     0.13200
H1664       H  0.31408050  0.96856364  0.18133144     0.15100
C1665       C  0.35528930  0.10607486  0.23249072    -0.04900
C1666       C  0.37156458  0.10100434  0.23558601    -0.04800
C1667       C  0.38189431  0.11028050  0.24586992    -0.23000
C1668       C  0.37609314  0.12475940  0.25324128     0.19200
C1669       C  0.35974552  0.12990038  0.25012656     0.16400
C1670       C  0.34953074  0.12060187  0.23979045    -0.18000
C1671       C  0.35379609  0.14427570  0.25741642    -0.19900
C1672       C  0.36395824  0.15359574  0.26764511    -0.12400
C1673       C  0.38030134  0.14877414  0.27080675     0.04200
C1674       C  0.38629956  0.13423263  0.26360512    -0.24600
H1675       H  0.37629038  0.08985385  0.23009416     0.09300
H1676       H  0.39438391  0.10612130  0.24807894     0.12900
H1677       H  0.33701162  0.12467193  0.23751735     0.12900
H1678       H  0.34128154  0.14835442  0.25516796     0.12600
H1679       H  0.35900264  0.16470534  0.27301826     0.13200
H1680       H  0.39887437  0.13038654  0.26593185     0.15100
C1681       C  0.41371524  0.22317917  0.26778068    -0.04900
C1682       C  0.40718666  0.23859411  0.27195227    -0.04800
C1683       C  0.40754730  0.25155478  0.26065480    -0.23000
C1684       C  0.41435111  0.24925725  0.24497615     0.19200
C1685       C  0.42129979  0.23389098  0.24085685     0.16400
C1686       C  0.42103717  0.22103060  0.25229210    -0.18000
C1687       C  0.42802737  0.23147529  0.22520441    -0.19900
C1688       C  0.42742076  0.24399853  0.21352180    -0.12400
C1689       C  0.42019978  0.25921155  0.21730792     0.04200
C1690       C  0.41394852  0.26188307  0.23319954    -0.24600
H1691       H  0.40158721  0.24056560  0.28386589     0.09300
H1692       H  0.40222842  0.26326316  0.26406398     0.12900
H1693       H  0.42620593  0.20922166  0.24896104     0.12900
H1694       H  0.43345645  0.21978908  0.22188035     0.12600
H1695       H  0.43240802  0.24166888  0.20140047     0.13200
H1696       H  0.40837972  0.27358143  0.23625422     0.15100
C1697       C  0.32202779  0.10991464  0.15815581    -0.04900
C1698       C  0.33730443  0.11511916  0.15189357    -0.04800
C1699       C  0.33809699  0.12701515  0.13949670    -0.23000
C1700       C  0.32361517  0.13392186  0.13307246     0.19200
C1701       C  0.30817077  0.12844246  0.13894038     0.16400
C1702       C  0.30746962  0.11648165  0.15141123    -0.18000
C1703       C  0.29368581  0.13533331  0.13253419    -0.19900
C1704       C  0.29447858  0.14789077  0.12082658    -0.12400
C1705       C  0.30975985  0.15378009  0.11520963     0.04200
C1706       C  0.32431835  0.14650086  0.12120687    -0.24600
H1707       H  0.34870573  0.11028708  0.15687934     0.09300
H1708       H  0.35005108  0.13102222  0.13514625     0.12900
H1709       H  0.29561032  0.11256486  0.15610645     0.12900
H1710       H  0.28173548  0.13125471  0.13683026     0.12600
H1711       H  0.28307969  0.15325911  0.11642812     0.13200
H1712       H  0.33618657  0.15095681  0.11704397     0.15100
C1713       C  0.38491409  0.26719317  0.14401859    -0.04900
C1714       C  0.39037667  0.26374606  0.12799716    -0.04800
C1715       C  0.38099005  0.25385393  0.11746017    -0.23000
C1716       C  0.36598572  0.24715736  0.12277014     0.19200
C1717       C  0.36027816  0.25070393  0.13879647     0.16400
C1718       C  0.36972693  0.26072276  0.14927547    -0.18000
C1719       C  0.34528732  0.24403455  0.14413167    -0.19900
C1720       C  0.33606849  0.23387504  0.13373888    -0.12400
C1721       C  0.34164914  0.23014681  0.11780720     0.04200
C1722       C  0.35665146  0.23689787  0.11238410    -0.24600
H1723       H  0.40199809  0.26860147  0.12363788     0.09300
H1724       H  0.38554619  0.25132054  0.10520292     0.12900
H1725       H  0.36535084  0.26328413  0.16160232     0.12900
H1726       H  0.34071110  0.24662501  0.15637232     0.12600
H1727       H  0.32455495  0.22887336  0.13821847     0.13200
H1728       H  0.36105883  0.23418792  0.10010337     0.15100
C1729       C  0.30995658  0.46316958  0.18318606    -0.04900
C1730       C  0.31923073  0.47045911  0.19586729    -0.04800
C1731       C  0.32139935  0.48748350  0.19644034    -0.23000
C1732       C  0.31420875  0.49757314  0.18441724     0.19200
C1733       C  0.30521991  0.49036450  0.17135630     0.16400
C1734       C  0.30326208  0.47321592  0.17074856    -0.18000
C1735       C  0.29786302  0.50047980  0.15944855    -0.19900
C1736       C  0.29887337  0.51757840  0.16080761    -0.12400
C1737       C  0.30737524  0.52489823  0.17401610     0.04200
C1738       C  0.31535651  0.51476033  0.18557728    -0.24600
H1739       H  0.32450203  0.46301977  0.20559643     0.09300
H1740       H  0.32834602  0.49278869  0.20653306     0.12900
H1741       H  0.29600683  0.46777062  0.16094167     0.12900
H1742       H  0.29094861  0.49518218  0.14932825     0.12600
H1743       H  0.29261761  0.52508670  0.15173396     0.13200
H1744       H  0.32189580  0.52022775  0.19585901     0.15100
C1745       C  0.33796795  0.37912661  0.19112915    -0.04900
C1746       C  0.33914951  0.36879308  0.20494611    -0.04800
C1747       C  0.35143552  0.35683403  0.20595800    -0.23000
C1748       C  0.36283479  0.35498811  0.19318494     0.19200
C1749       C  0.36209815  0.36558803  0.17941745     0.16400
C1750       C  0.34966947  0.37759480  0.17846811    -0.18000
C1751       C  0.37355648  0.36370454  0.16666682    -0.19900
C1752       C  0.38523259  0.35108419  0.16728005    -0.12400
C1753       C  0.38570528  0.34015777  0.18067458     0.04200
C1754       C  0.37465472  0.34242166  0.19376210    -0.24600
H1755       H  0.33030586  0.36969253  0.21485519     0.09300
H1756       H  0.35183769  0.34883723  0.21661429     0.12900
H1757       H  0.34891693  0.38550147  0.16775682     0.12900
H1758       H  0.37325299  0.37175291  0.15604866     0.12600
H1759       H  0.39362217  0.34961575  0.15704980     0.13200
H1760       H  0.37487215  0.33407351  0.20415791     0.15100
C1761       C  0.26812942  0.23095544  0.08438219    -0.04900
C1762       C  0.25286414  0.22606635  0.09091981    -0.04800
C1763       C  0.23979414  0.23725286  0.09204603    -0.23000
C1764       C  0.24179902  0.25352761  0.08668856     0.19200
C1765       C  0.25707992  0.25842661  0.07995195     0.16400
C1766       C  0.27004038  0.24714579  0.07876830    -0.18000
C1767       C  0.25930144  0.27462628  0.07469107    -0.19900
C1768       C  0.24654985  0.28595670  0.07612036    -0.12400
C1769       C  0.23125715  0.28135467  0.08278060     0.04200
C1770       C  0.22891907  0.26504023  0.08804806    -0.24600
H1771       H  0.25110616  0.21366112  0.09539349     0.09300
H1772       H  0.22820257  0.23322896  0.09726043     0.12900
H1773       H  0.28174846  0.25109725  0.07373446     0.12900
H1774       H  0.27095251  0.27857737  0.06954529     0.12600
H1775       H  0.24872292  0.29842090  0.07200469     0.13200
H1776       H  0.21721006  0.26135842  0.09326796     0.15100
C1777       C  0.22416046  0.34861577  0.12120712    -0.04900
C1778       C  0.22811650  0.34145251  0.13647091    -0.04800
C1779       C  0.23904068  0.34913162  0.14727608    -0.23000
C1780       C  0.24627722  0.36414750  0.14304999     0.19200
C1781       C  0.24234361  0.37161647  0.12782662     0.16400
C1782       C  0.23124078  0.36382611  0.11699531    -0.18000
C1783       C  0.24969904  0.38666955  0.12370350    -0.19900
C1784       C  0.26075766  0.39425036  0.13458858    -0.12400
C1785       C  0.26463580  0.38691523  0.14977942     0.04200
C1786       C  0.25736392  0.37179850  0.15386131    -0.24600
H1787       H  0.22288251  0.32974490  0.14003179     0.09300
H1788       H  0.24191135  0.34325634  0.15890544     0.12900
H1789       H  0.22834461  0.36943914  0.10524160     0.12900
H1790       H  0.24686466  0.39260094  0.11209874     0.12600
H1791       H  0.26613973  0.40593906  0.13119627     0.13200
H1792       H  0.26022134  0.36600934  0.16554412     0.15100
C1793       C  0.21752044  0.41374735  0.27223244    -0.04900
C1794       C  0.23125871  0.40408091  0.27641208    -0.04800
C1795       C  0.24456713  0.40262299  0.26559393    -0.23000
C1796       C  0.24440873  0.41090635  0.25044877     0.19200
C1797       C  0.23078158  0.42093550  0.24633457     0.16400
C1798       C  0.21745505  0.42226192  0.25720054    -0.18000
C1799       C  0.23057966  0.42933672  0.23130771    -0.19900
C1800       C  0.24362880  0.42765858  0.22031652    -0.12400
C1801       C  0.25715070  0.41752619  0.22407940     0.04200
C1802       C  0.25752273  0.40923136  0.23927593    -0.24600
H1803       H  0.23157309  0.39736998  0.28791907     0.09300
H1804       H  0.25489736  0.39490801  0.26900494     0.12900
H1805       H  0.20695846  0.42980454  0.25386982     0.12900
H1806       H  0.22026156  0.43710986  0.22798439     0.12600
H1807       H  0.24302694  0.43420725  0.20872695     0.13200
H1808       H  0.26788384  0.40140142  0.24233219     0.15100
C1809       C  0.16528243  0.46728520  0.31071735    -0.04900
C1810       C  0.15253231  0.47517057  0.30200618    -0.04800
C1811       C  0.15142439  0.49231746  0.30170253    -0.23000
C1812       C  0.16316876  0.50194270  0.30994943     0.19200
C1813       C  0.17564675  0.49416178  0.31929545     0.16400
C1814       C  0.17653984  0.47690842  0.31974007    -0.18000
C1815       C  0.18747244  0.50377145  0.32743755    -0.19900
C1816       C  0.18751141  0.52084544  0.32557805    -0.12400
C1817       C  0.17563587  0.52867830  0.31567976     0.04200
C1818       C  0.16312442  0.51915505  0.30835473    -0.24600
H1819       H  0.14364818  0.46807857  0.29501603     0.09300
H1820       H  0.14171273  0.49804623  0.29454965     0.12900
H1821       H  0.18642799  0.47101409  0.32651327     0.12900
H1822       H  0.19706034  0.49804521  0.33475597     0.12600
H1823       H  0.19720988  0.52787905  0.33146038     0.13200
H1824       H  0.15386529  0.52502683  0.30072537     0.15100
C1825       C  0.16748894  0.33932580  0.39177223    -0.04900
C1826       C  0.15178315  0.34444317  0.38648579    -0.04800
C1827       C  0.15004674  0.35672144  0.37452636    -0.23000
C1828       C  0.16399382  0.36417369  0.36759454     0.19200
C1829       C  0.17983400  0.35944930  0.37313869     0.16400
C1830       C  0.18148438  0.34711853  0.38518433    -0.18000
C1831       C  0.19379747  0.36685910  0.36625373    -0.19900
C1832       C  0.19214024  0.37853684  0.35374551    -0.12400
C1833       C  0.17649555  0.38312446  0.34782649     0.04200
C1834       C  0.16240635  0.37599153  0.35498843    -0.24600
H1835       H  0.14079209  0.33865529  0.39131271     0.09300
H1836       H  0.13779275  0.36017919  0.37049458     0.12900
H1837       H  0.19367456  0.34331844  0.38912012     0.12900
H1838       H  0.20603782  0.36342886  0.37035377     0.12600
H1839       H  0.20320255  0.38377548  0.34847501     0.13200
H1840       H  0.15026515  0.37934645  0.35052879     0.15100
C1841       C  0.07660844  0.27490250  0.24296042    -0.04900
C1842       C  0.06895648  0.27807065  0.25811537    -0.04800
C1843       C  0.06908869  0.26630880  0.27059595    -0.23000
C1844       C  0.07701479  0.25123346  0.26818213     0.19200
C1845       C  0.08457696  0.24782948  0.25290965     0.16400
C1846       C  0.08422537  0.25964492  0.24034806    -0.18000
C1847       C  0.09261055  0.23278072  0.25057991    -0.19900
C1848       C  0.09334446  0.22129984  0.26334536    -0.12400
C1849       C  0.08603562  0.22467110  0.27862752     0.04200
C1850       C  0.07774111  0.23962922  0.28089464    -0.24600
H1851       H  0.06296967  0.28972971  0.26038482     0.09300
H1852       H  0.06320505  0.26909946  0.28221446     0.12900
H1853       H  0.09021244  0.25711540  0.22871525     0.12900
H1854       H  0.09847860  0.22996574  0.23896056     0.12600
H1855       H  0.09979854  0.20984830  0.26131514     0.13200
H1856       H  0.07202556  0.24234755  0.29262183     0.15100
C1857       C  0.10734338  0.30800998  0.16087031    -0.04900
C1858       C  0.11541713  0.29305739  0.15776008    -0.04800
C1859       C  0.12710244  0.29183968  0.14522475    -0.23000
C1860       C  0.13102004  0.30558841  0.13561876     0.19200
C1861       C  0.12254584  0.32052367  0.13821795     0.16400
C1862       C  0.11069393  0.32161309  0.15074469    -0.18000
C1863       C  0.12654664  0.33430175  0.12868099    -0.19900
C1864       C  0.13934162  0.33351822  0.11723569    -0.12400
C1865       C  0.14830614  0.31892123  0.11503389     0.04200
C1866       C  0.14373524  0.30483932  0.12395059    -0.24600
H1867       H  0.11306966  0.28238838  0.16536336     0.09300
H1868       H  0.13342833  0.28027655  0.14337861     0.12900
H1869       H  0.10458329  0.33321881  0.15302453     0.12900
H1870       H  0.12013358  0.34583033  0.13043569     0.12600
H1871       H  0.14256624  0.34451949  0.11047675     0.13200
H1872       H  0.15053666  0.29350156  0.12236020     0.15100
C1873       C  0.11324779  0.34490758  0.23392023    -0.04900
C1874       C  0.12947483  0.33946660  0.23663742    -0.04800
C1875       C  0.14026077  0.34842483  0.24661614    -0.23000
C1876       C  0.13496036  0.36290969  0.25423893     0.19200
C1877       C  0.11866713  0.36850450  0.25161675     0.16400
C1878       C  0.10796199  0.35955896  0.24135006    -0.18000
C1879       C  0.11330120  0.38284878  0.25947663    -0.19900
C1880       C  0.12395720  0.39157076  0.26982767    -0.12400
C1881       C  0.14020710  0.38618440  0.27243046     0.04200
C1882       C  0.14563933  0.37181687  0.26453648    -0.24600
H1883       H  0.13383537  0.32820022  0.23107604     0.09300
H1884       H  0.15268850  0.34393003  0.24850437     0.12900
H1885       H  0.09543423  0.36378599  0.23946482     0.12900
H1886       H  0.10084688  0.38729543  0.25766756     0.12600
H1887       H  0.11948757  0.40260925  0.27574250     0.13200
H1888       H  0.15813226  0.36750461  0.26647176     0.15100
C1889       C  0.53314704  0.69614163  0.17621610    -0.04900
C1890       C  0.52481271  0.70274652  0.16255621    -0.04800
C1891       C  0.50763957  0.70182925  0.16143293    -0.23000
C1892       C  0.49850032  0.69427152  0.17395107     0.19200
C1893       C  0.50681487  0.68690771  0.18736224     0.16400
C1894       C  0.52407164  0.68785048  0.18838910    -0.18000
C1895       C  0.49768326  0.67926528  0.19983059    -0.19900
C1896       C  0.48045875  0.67955237  0.19939622    -0.12400
C1897       C  0.47205224  0.68748566  0.18649852     0.04200
C1898       C  0.48118932  0.69448853  0.17358851    -0.24600
H1899       H  0.53152400  0.70914881  0.15300364     0.09300
H1900       H  0.50148069  0.70744001  0.15100513     0.12900
H1901       H  0.53037187  0.68260678  0.19893478     0.12900
H1902       H  0.50385028  0.67347222  0.21015432     0.12600
H1903       H  0.47371747  0.67405345  0.20947679     0.13200
H1904       H  0.47485284  0.70057914  0.16353596     0.15100
C1905       C  0.61929682  0.73125901  0.15082160    -0.04900
C1906       C  0.63610080  0.73164302  0.15506012    -0.04800
C1907       C  0.64720021  0.74105219  0.14600378    -0.23000
C1908       C  0.64168338  0.75037500  0.13260006     0.19200
C1909       C  0.62489373  0.74982832  0.12793749     0.16400
C1910       C  0.61380008  0.74014893  0.13700824    -0.18000
C1911       C  0.61946329  0.75928832  0.11453490    -0.19900
C1912       C  0.63051069  0.76941046  0.10604688    -0.12400
C1913       C  0.64716678  0.77017499  0.11077780     0.04200
C1914       C  0.65267246  0.76045620  0.12398647    -0.24600
H1915       H  0.64065901  0.72486252  0.16560134     0.09300
H1916       H  0.66004326  0.74128886  0.14968890     0.12900
H1917       H  0.60086472  0.73996318  0.13364977     0.12900
H1918       H  0.60665579  0.75900648  0.11074225     0.12600
H1919       H  0.62600931  0.77668698  0.09582245     0.13200
H1920       H  0.66550799  0.76084968  0.12770884     0.15100
C1921       C  0.76632667  0.71996618  0.08580789    -0.04900
C1922       C  0.77119663  0.73438772  0.09400323    -0.04800
C1923       C  0.76084366  0.74811398  0.09436991    -0.23000
C1924       C  0.74538388  0.74764863  0.08661338     0.19200
C1925       C  0.74035571  0.73318271  0.07838519     0.16400
C1926       C  0.75083257  0.71947402  0.07803013    -0.18000
C1927       C  0.72489119  0.73263369  0.07069465    -0.19900
C1928       C  0.71441909  0.74621414  0.07126783    -0.12400
C1929       C  0.71918467  0.76063393  0.07953192     0.04200
C1930       C  0.73479426  0.76130758  0.08709012    -0.24600
H1931       H  0.78306087  0.73508153  0.10010386     0.09300
H1932       H  0.76491365  0.75907374  0.10076099     0.12900
H1933       H  0.74689225  0.70841096  0.07172203     0.12900
H1934       H  0.72083112  0.72164901  0.06433664     0.12600
H1935       H  0.70245585  0.74533795  0.06538712     0.13200
H1936       H  0.73859844  0.77233358  0.09354040     0.15100
C1937       C  0.65186591  0.61396961  0.17994227    -0.04900
C1938       C  0.64421193  0.61746073  0.16479854    -0.04800
C1939       C  0.63228058  0.62975947  0.16361832    -0.23000
C1940       C  0.62779283  0.63879684  0.17757225     0.19200
C1941       C  0.63501345  0.63503134  0.19297205     0.16400
C1942       C  0.64694190  0.62259804  0.19407698    -0.18000
C1943       C  0.63058606  0.64414025  0.20690545    -0.19900
C1944       C  0.61953775  0.65722152  0.20549646    -0.12400
C1945       C  0.61265787  0.66137018  0.19015803     0.04200
C1946       C  0.61660146  0.65186489  0.17628003    -0.24600
H1947       H  0.64783068  0.61103625  0.15371909     0.09300
H1948       H  0.62686343  0.63246731  0.15172069     0.12900
H1949       H  0.65277872  0.62004038  0.20581666     0.12900
H1950       H  0.63596261  0.64140367  0.21881345     0.12600
H1951       H  0.61668495  0.66434953  0.21636718     0.13200
H1952       H  0.61140854  0.65496485  0.16437184     0.15100
C1953       C  0.72645655  0.61581106  0.15068859    -0.04900
C1954       C  0.72842609  0.63220280  0.15577405    -0.04800
C1955       C  0.73882872  0.64284591  0.14724572    -0.23000
C1956       C  0.74754217  0.63729200  0.13348619     0.19200
C1957       C  0.74573647  0.62083100  0.12824868     0.16400
C1958       C  0.73516872  0.61018412  0.13686634    -0.18000
C1959       C  0.75453405  0.61534119  0.11447432    -0.19900
C1960       C  0.76487678  0.62609672  0.10588703    -0.12400
C1961       C  0.76669807  0.64249092  0.11098860     0.04200
C1962       C  0.75800888  0.64796498  0.12487829    -0.24600
H1963       H  0.72188894  0.63684206  0.16639915     0.09300
H1964       H  0.74007346  0.65541766  0.15143281     0.12900
H1965       H  0.73384631  0.59754044  0.13291682     0.12900
H1966       H  0.75336865  0.60275982  0.11030266     0.12600
H1967       H  0.77149666  0.62156899  0.09526896     0.13200
H1968       H  0.75928781  0.66058126  0.12893912     0.15100
C1969       C  0.68447289  0.88723595  0.16086530    -0.04900
C1970       C  0.66915279  0.88578358  0.15285371    -0.04800
C1971       C  0.66690109  0.87437380  0.14015782    -0.23000
C1972       C  0.67991883  0.86415083  0.13528750     0.19200
C1973       C  0.69550146  0.86589318  0.14292012     0.16400
C1974       C  0.69769874  0.87745474  0.15555747    -0.18000
C1975       C  0.70853925  0.85571672  0.13811521    -0.19900
C1976       C  0.70609732  0.84364965  0.12614036    -0.12400
C1977       C  0.69058232  0.84150041  0.11869135     0.04200
C1978       C  0.67754926  0.85197244  0.12321037    -0.24600
H1979       H  0.65876616  0.89318057  0.15668816     0.09300
H1980       H  0.65488496  0.87329369  0.13440928     0.12900
H1981       H  0.70958041  0.87844589  0.16161193     0.12900
H1982       H  0.72057110  0.85690281  0.14381369     0.12600
H1983       H  0.71634048  0.83578222  0.12290758     0.13200
H1984       H  0.66552651  0.85047279  0.11755814     0.15100
C1985       C  0.58351326  0.74639482  0.22025786    -0.04900
C1986       C  0.58123308  0.76260654  0.21474587    -0.04800
C1987       C  0.58097670  0.77564301  0.22588679    -0.23000
C1988       C  0.58297909  0.77270554  0.24276180     0.19200
C1989       C  0.58516969  0.75644177  0.24846641     0.16400
C1990       C  0.58544733  0.74339278  0.23718305    -0.18000
C1991       C  0.58717488  0.75352716  0.26535445    -0.19900
C1992       C  0.58728802  0.76661504  0.27646443    -0.12400
C1993       C  0.58533211  0.78283690  0.27089966     0.04200
C1994       C  0.58301051  0.78577543  0.25400261    -0.24600
H1995       H  0.57974488  0.76524458  0.20176256     0.09300
H1996       H  0.57929200  0.78802548  0.22129256     0.12900
H1997       H  0.58719606  0.73093999  0.24157064     0.12900
H1998       H  0.58881351  0.74114477  0.26995786     0.12600
H1999       H  0.58904522  0.76404149  0.28942708     0.13200
H2000       H  0.58149700  0.79824080  0.24955691     0.15100
C2001       C  0.53631579  0.83220352  0.31277867    -0.04900
C2002       C  0.52824157  0.84511823  0.30457600    -0.04800
C2003       C  0.51103548  0.84610671  0.30447810    -0.23000
C2004       C  0.50157355  0.83412080  0.31247952     0.19200
C2005       C  0.50957844  0.82133207  0.32113958     0.16400
C2006       C  0.52686862  0.82053360  0.32135031    -0.18000
C2007       C  0.50015029  0.80922288  0.32896925    -0.19900
C2008       C  0.48297469  0.80944916  0.32777072    -0.12400
C2009       C  0.47487400  0.82187146  0.31886193     0.04200
C2010       C  0.48427363  0.83438917  0.31150762    -0.24600
H2011       H  0.53522425  0.85425453  0.29786675     0.09300
H2012       H  0.50512816  0.85601148  0.29779170     0.12900
H2013       H  0.53293098  0.81047637  0.32767209     0.12900
H2014       H  0.50607042  0.79933832  0.33567537     0.12600
H2015       H  0.47603380  0.79966380  0.33354336     0.13200
H2016       H  0.47818528  0.84398075  0.30451776     0.15100
C2017       C  0.61857696  0.85875595  0.27709543    -0.04900
C2018       C  0.61601183  0.87579279  0.27806903    -0.04800
C2019       C  0.62528223  0.88658796  0.26837965    -0.23000
C2020       C  0.63731753  0.88050742  0.25762097     0.19200
C2021       C  0.64008036  0.86338856  0.25676000     0.16400
C2022       C  0.63069747  0.85267148  0.26642373    -0.18000
C2023       C  0.65216542  0.85720443  0.24620634    -0.19900
C2024       C  0.66142415  0.86785170  0.23650466    -0.12400
C2025       C  0.65873035  0.88488791  0.23706954     0.04200
C2026       C  0.64662847  0.89118207  0.24769786    -0.24600
H2027       H  0.60672789  0.88076246  0.28620721     0.09300
H2028       H  0.62300546  0.89966381  0.26926235     0.12900
H2029       H  0.63283945  0.83955800  0.26560021     0.12900
H2030       H  0.65445665  0.84412043  0.24543928     0.12600
H2031       H  0.67067593  0.86269202  0.22844550     0.13200
H2032       H  0.64452189  0.90430928  0.24830176     0.15100
C2033       C  0.02529662  0.67138967  0.19599338    -0.04900
C2034       C  0.01835109  0.68348477  0.18574938    -0.04800
C2035       C  0.00125691  0.68528130  0.18447716    -0.23000
C2036       C  0.99069561  0.67504102  0.19345987     0.19200
C2037       C  0.99745576  0.66242712  0.20334774     0.16400
C2038       C  0.01470446  0.66062609  0.20450498    -0.18000
C2039       C  0.98684203  0.65220837  0.21233314    -0.19900
C2040       C  0.96978531  0.65483887  0.21200150    -0.12400
C2041       C  0.96296290  0.66771121  0.20265572     0.04200
C2042       C  0.97353480  0.67756284  0.19312639    -0.24600
H2043       H  0.02616450  0.69193948  0.17905970     0.09300
H2044       H  0.99630890  0.69497562  0.17678092     0.12900
H2045       H  0.01985597  0.65125920  0.21248065     0.12900
H2046       H  0.99175581  0.64242641  0.21993873     0.12600
H2047       H  0.96195897  0.64705126  0.21944431     0.13200
H2048       H  0.96847564  0.68752974  0.18585413     0.15100
C2049       C  0.84299010  0.67564980  0.11578530    -0.04900
C2050       C  0.84940851  0.66032381  0.12049871    -0.04800
C2051       C  0.86146979  0.65917227  0.13273050    -0.23000
C2052       C  0.86732694  0.67332621  0.14060059     0.19200
C2053       C  0.86152205  0.68890511  0.13555318     0.16400
C2054       C  0.84943976  0.68999260  0.12309083    -0.18000
C2055       C  0.86747418  0.70302848  0.14350837    -0.19900
C2056       C  0.87846769  0.70165436  0.15678338    -0.12400
C2057       C  0.88375345  0.68614401  0.16232621     0.04200
C2058       C  0.87842359  0.67205810  0.15384636    -0.24600
H2059       H  0.84475116  0.64910592  0.11504210     0.09300
H2060       H  0.86586700  0.64714342  0.13637065     0.12900
H2061       H  0.84461213  0.70190076  0.11957739     0.12900
H2062       H  0.86327705  0.71510025  0.13977483     0.12600
H2063       H  0.88243327  0.71271916  0.16303927     0.13200
H2064       H  0.88244487  0.66002943  0.15791917     0.15100
C2065       C  0.73234778  0.57772773  0.21912434    -0.04900
C2066       C  0.74726953  0.57013974  0.21479499    -0.04800
C2067       C  0.75995809  0.56851382  0.22623068    -0.23000
C2068       C  0.75799998  0.57448701  0.24222829     0.19200
C2069       C  0.74300255  0.58198383  0.24686874     0.16400
C2070       C  0.73021810  0.58356129  0.23526167    -0.18000
C2071       C  0.74119803  0.58794002  0.26296028    -0.19900
C2072       C  0.75426619  0.58679457  0.27418657    -0.12400
C2073       C  0.76931005  0.57967190  0.26948315     0.04200
C2074       C  0.77096661  0.57332249  0.25354082    -0.24600
H2075       H  0.74923033  0.56554145  0.20245282     0.09300
H2076       H  0.77137349  0.56273105  0.22250142     0.12900
H2077       H  0.71876209  0.58944196  0.23871653     0.12900
H2078       H  0.72979263  0.59367200  0.26678562     0.12600
H2079       H  0.75270105  0.59173684  0.28645158     0.13200
H2080       H  0.78248257  0.56773132  0.24980052     0.15100
C2081       C  0.84774729  0.60829736  0.27369881    -0.04900
C2082       C  0.86326790  0.60182563  0.26964571    -0.04800
C2083       C  0.87420781  0.61071548  0.25974326    -0.23000
C2084       C  0.86988266  0.62631253  0.25377377     0.19200
C2085       C  0.85441208  0.63304522  0.25799371     0.16400
C2086       C  0.84346038  0.62401098  0.26786929    -0.18000
C2087       C  0.85011069  0.64868916  0.25220608    -0.19900
C2088       C  0.86099546  0.65759171  0.24231907    -0.12400
C2089       C  0.87639433  0.65103881  0.23792655     0.04200
C2090       C  0.88074501  0.63530540  0.24370043    -0.24600
H2091       H  0.86687642  0.58976360  0.27395609     0.09300
H2092       H  0.88602709  0.60535674  0.25670158     0.12900
H2093       H  0.83156805  0.62920185  0.27095542     0.12900
H2094       H  0.83832331  0.65406560  0.25534569     0.12600
H2095       H  0.85733462  0.66967252  0.23810521     0.13200
H2096       H  0.89261369  0.63013384  0.24050522     0.15100
C2097       C  0.92408901  0.76068461  0.29159958    -0.04900
C2098       C  0.92941353  0.74496231  0.29639003    -0.04800
C2099       C  0.92906074  0.73188756  0.28527779    -0.23000
C2100       C  0.92325969  0.73426244  0.26918947     0.19200
C2101       C  0.91820947  0.75009049  0.26411389     0.16400
C2102       C  0.91878652  0.76322957  0.27530547    -0.18000
C2103       C  0.91230738  0.75241248  0.24804160    -0.19900
C2104       C  0.91117491  0.73913946  0.23717957    -0.12400
C2105       C  0.91597286  0.72331600  0.24216791     0.04200
C2106       C  0.92215132  0.72101427  0.25819475    -0.24600
H2107       H  0.93360710  0.74269227  0.30885038     0.09300
H2108       H  0.93303635  0.71985222  0.28936364     0.12900
H2109       H  0.91462946  0.77529234  0.27147477     0.12900
H2110       H  0.90837941  0.76445304  0.24393033     0.12600
H2111       H  0.90639588  0.74123828  0.22490086     0.13200
H2112       H  0.92591519  0.70887739  0.26219666     0.15100
C2113       C  0.97175826  0.80783036  0.33829073    -0.04900
C2114       C  0.97925439  0.79998182  0.35179033    -0.04800
C2115       C  0.99641719  0.79888978  0.35294214    -0.23000
C2116       C  0.00639722  0.80564594  0.34061276     0.19200
C2117       C  0.99899723  0.81427183  0.32741815     0.16400
C2118       C  0.98175443  0.81537199  0.32637798    -0.18000
C2119       C  0.00894110  0.82109823  0.31511979    -0.19900
C2120       C  0.02600095  0.81886316  0.31552315    -0.12400
C2121       C  0.03345934  0.80974087  0.32820591     0.04200
C2122       C  0.02358138  0.80343776  0.34093594    -0.24600
H2123       H  0.97183575  0.79407401  0.36113798     0.09300
H2124       H  0.00185659  0.79232637  0.36320676     0.12900
H2125       H  0.97612973  0.82148565  0.31592531     0.12900
H2126       H  0.00349210  0.82780783  0.30495548     0.12600
H2127       H  0.03331553  0.82386111  0.30558248     0.13200
H2128       H  0.02918280  0.79641123  0.35080613     0.15100
C2129       C  0.81958136  0.65405825  0.38912746    -0.04900
C2130       C  0.83478924  0.64652838  0.38576654    -0.04800
C2131       C  0.83578854  0.63358173  0.37452784    -0.23000
C2132       C  0.82159607  0.62795698  0.36641468     0.19200
C2133       C  0.80616991  0.63511747  0.37008303     0.16400
C2134       C  0.80524979  0.64805036  0.38145400    -0.18000
C2135       C  0.79197765  0.62954578  0.36195818    -0.19900
C2136       C  0.79311481  0.61736891  0.34992281    -0.12400
C2137       C  0.80845191  0.61049440  0.34580752     0.04200
C2138       C  0.82263319  0.61564516  0.35435573    -0.24600
H2139       H  0.84600730  0.65090850  0.39154023     0.09300
H2140       H  0.84771052  0.62821269  0.37192148     0.12900
H2141       H  0.79344838  0.65374542  0.38394650     0.12900
H2142       H  0.78004730  0.63486000  0.36464261     0.12600
H2143       H  0.78200161  0.61362881  0.34352515     0.13200
H2144       H  0.83453210  0.61047077  0.35127061     0.15100
C2145       C  0.84755775  0.73223066  0.38808322    -0.04900
C2146       C  0.84163093  0.73657076  0.37239893    -0.04800
C2147       C  0.85028092  0.74761333  0.36252873    -0.23000
C2148       C  0.86508502  0.75451842  0.36811258     0.19200
C2149       C  0.87119198  0.75034924  0.38388201     0.16400
C2150       C  0.86238462  0.73922660  0.39379003    -0.18000
C2151       C  0.88605705  0.75729732  0.38937555    -0.19900
C2152       C  0.89492839  0.76799100  0.37921093    -0.12400
C2153       C  0.88907858  0.77195321  0.36339656     0.04200
C2154       C  0.87399507  0.76531531  0.35804143    -0.24600
H2155       H  0.83022386  0.73143766  0.36772766     0.09300
H2156       H  0.84542069  0.75068814  0.35048070     0.12900
H2157       H  0.86706710  0.73601761  0.40587626     0.12900
H2158       H  0.89093385  0.75429143  0.40143160     0.12600
H2159       H  0.90653757  0.77290914  0.38360843     0.13200
H2160       H  0.86933860  0.76825843  0.34587409     0.15100
C2161       C  0.76960182  0.92531466  0.28762017    -0.04900
C2162       C  0.75619313  0.93603514  0.28961792    -0.04800
C2163       C  0.74407918  0.93733602  0.27749784    -0.23000
C2164       C  0.74510056  0.92788291  0.26315997     0.19200
C2165       C  0.75881345  0.91749059  0.26067271     0.16400
C2166       C  0.77105837  0.91632560  0.27290846    -0.18000
C2167       C  0.75973302  0.90809743  0.24621947    -0.19900
C2168       C  0.74690695  0.90857880  0.23464827    -0.12400
C2169       C  0.73296660  0.91841638  0.23738978     0.04200
C2170       C  0.73234155  0.92829850  0.25152940    -0.24600
H2171       H  0.75484159  0.94317913  0.30077016     0.09300
H2172       H  0.73369808  0.94544004  0.27952766     0.12900
H2173       H  0.78136588  0.90804488  0.27122377     0.12900
H2174       H  0.77017209  0.90011103  0.24404559     0.12600
H2175       H  0.74765415  0.90087593  0.22381768     0.13200
H2176       H  0.72170569  0.93604175  0.25370519     0.15100
C2177       C  0.84825736  0.88923933  0.32817971    -0.04900
C2178       C  0.85824560  0.88874049  0.34233515    -0.04800
C2179       C  0.87135885  0.87770235  0.34350157    -0.23000
C2180       C  0.87470106  0.86686227  0.33055776     0.19200
C2181       C  0.86527483  0.86777036  0.31591955     0.16400
C2182       C  0.85217299  0.87903614  0.31476646    -0.18000
C2183       C  0.86867696  0.85690248  0.30298460    -0.19900
C2184       C  0.88068217  0.84471173  0.30487655    -0.12400
C2185       C  0.88956084  0.84319931  0.31969836     0.04200
C2186       C  0.88683008  0.85467586  0.33231382    -0.24600
H2187       H  0.85559990  0.89654852  0.35278051     0.09300
H2188       H  0.87854039  0.87727734  0.35475548     0.12900
H2189       H  0.84461915  0.87934435  0.30374570     0.12900
H2190       H  0.86168734  0.85747438  0.29161744     0.12600
H2191       H  0.88261070  0.83609657  0.29491955     0.13200
H2192       H  0.89364270  0.85371103  0.34376818     0.15100
C2193       C  0.73986794  0.78237620  0.43022338    -0.04900
C2194       C  0.75562237  0.78609894  0.43643184    -0.04800
C2195       C  0.76817153  0.77444823  0.43620005    -0.23000
C2196       C  0.76525665  0.75878881  0.42974736     0.19200
C2197       C  0.74943153  0.75466879  0.42370935     0.16400
C2198       C  0.73677148  0.76651106  0.42400188    -0.18000
C2199       C  0.74670133  0.73886979  0.41729535    -0.19900
C2200       C  0.75960737  0.72743093  0.41663187    -0.12400
C2201       C  0.77542970  0.73161126  0.42237831     0.04200
C2202       C  0.77805619  0.74729705  0.42906329    -0.24600
H2203       H  0.75835929  0.79817150  0.44131877     0.09300
H2204       H  0.78023007  0.77776289  0.44091132     0.12900
H2205       H  0.72467765  0.76348243  0.41918559     0.12900
H2206       H  0.73466125  0.73542660  0.41264163     0.12600
H2207       H  0.75726578  0.71540347  0.41144266     0.13200
H2208       H  0.79017183  0.75068894  0.43358554     0.15100
C2209       C  0.66036004  0.82425452  0.39652398    -0.04900
C2210       C  0.65231442  0.83937694  0.39423932    -0.04800
C2211       C  0.64039847  0.84127593  0.38191338    -0.23000
C2212       C  0.63623077  0.82806199  0.37165389     0.19200
C2213       C  0.64391270  0.81267198  0.37410920     0.16400
C2214       C  0.65589801  0.81085677  0.38652348    -0.18000
C2215       C  0.63974942  0.79945846  0.36384851    -0.19900
C2216       C  0.62836201  0.80154743  0.35106513    -0.12400
C2217       C  0.62085066  0.81686620  0.34830750     0.04200
C2218       C  0.62474086  0.83005696  0.35880679    -0.24600
H2219       H  0.65557307  0.84991701  0.40169481     0.09300
H2220       H  0.63464146  0.85316214  0.38023365     0.12900
H2221       H  0.66201907  0.79913554  0.38812948     0.12900
H2222       H  0.64547211  0.78755999  0.36555853     0.12600
H2223       H  0.62557842  0.79117922  0.34318925     0.13200
H2224       H  0.61908054  0.84194587  0.35680001     0.15100
C2225       C  0.76958634  0.88627692  0.35898693    -0.04900
C2226       C  0.76226263  0.87260989  0.35132135    -0.04800
C2227       C  0.75167576  0.86228870  0.36000600    -0.23000
C2228       C  0.74811331  0.86543932  0.37654713     0.19200
C2229       C  0.75518793  0.87923423  0.38442264     0.16400
C2230       C  0.76593676  0.88956955  0.37559802    -0.18000
C2231       C  0.75142327  0.88234576  0.40098748    -0.19900
C2232       C  0.74095483  0.87176885  0.40968530    -0.12400
C2233       C  0.73409763  0.85788967  0.40197699     0.04200
C2234       C  0.73767526  0.85490734  0.38533807    -0.24600
H2235       H  0.76480013  0.86980361  0.33855433     0.09300
H2236       H  0.74631411  0.85178964  0.35377920     0.12900
H2237       H  0.77142197  0.90012256  0.38162620     0.12900
H2238       H  0.75666194  0.89288258  0.40724595     0.12600
H2239       H  0.73837974  0.87434097  0.42249340     0.13200
H2240       H  0.73243144  0.84428327  0.37921245     0.15100
C2241       C  0.68861925  0.47017140  0.16787752    -0.04900
C2242       C  0.69653768  0.47758894  0.15441202    -0.04800
C2243       C  0.69661322  0.49467306  0.15260064    -0.23000
C2244       C  0.68879200  0.50466609  0.16424788     0.19200
C2245       C  0.68006203  0.49728188  0.17734808     0.16400
C2246       C  0.67993578  0.48010670  0.17901729    -0.18000
C2247       C  0.67224380  0.50722313  0.18901319    -0.19900
C2248       C  0.67378998  0.52428599  0.18823876    -0.12400
C2249       C  0.68306196  0.53177648  0.17571417     0.04200
C2250       C  0.69014928  0.52187799  0.16344187    -0.24600
H2251       H  0.70325344  0.47021743  0.14560737     0.09300
H2252       H  0.70326800  0.50008178  0.14240686     0.12900
H2253       H  0.67370450  0.47454233  0.18940223     0.12900
H2254       H  0.66540009  0.50178968  0.19906813     0.12600
H2255       H  0.66812144  0.53161173  0.19778792     0.13200
H2256       H  0.69733544  0.52749028  0.15372173     0.15100
C2257       C  0.72540006  0.38726994  0.14446116    -0.04900
C2258       C  0.72741093  0.39194330  0.12793332    -0.04800
C2259       C  0.73701874  0.38248287  0.11726437    -0.23000
C2260       C  0.74478035  0.36815530  0.12292923     0.19200
C2261       C  0.74265030  0.36325374  0.13948212     0.16400
C2262       C  0.73301897  0.37282095  0.15011456    -0.18000
C2263       C  0.75028088  0.34890645  0.14518089    -0.19900
C2264       C  0.76000987  0.33952233  0.13462965    -0.12400
C2265       C  0.76241940  0.34433496  0.11819409     0.04200
C2266       C  0.75470559  0.35869793  0.11239080    -0.24600
H2267       H  0.72168569  0.40302747  0.12328020     0.09300
H2268       H  0.73846049  0.38643041  0.10461664     0.12900
H2269       H  0.73156680  0.36906477  0.16282910     0.12900
H2270       H  0.74877288  0.34496042  0.15782400     0.12600
H2271       H  0.76582271  0.32854119  0.13942070     0.13200
H2272       H  0.75641345  0.36250101  0.09972563     0.15100
C2273       C  0.02616516  0.32110329  0.20045910    -0.04900
C2274       C  0.01847138  0.33446030  0.20824136    -0.04800
C2275       C  0.00127609  0.33550340  0.20897607    -0.23000
C2276       C  0.99140871  0.32319316  0.20195778     0.19200
C2277       C  0.99898467  0.30988350  0.19378535     0.16400
C2278       C  0.01627985  0.30893628  0.19306114    -0.18000
C2279       C  0.98913046  0.29754668  0.18680646    -0.19900
C2280       C  0.97196692  0.29817624  0.18822996    -0.12400
C2281       C  0.96428258  0.31115577  0.19664496     0.04200
C2282       C  0.97412861  0.32377006  0.20330125    -0.24600
H2283       H  0.02576321  0.34394440  0.21412005     0.09300
H2284       H  0.99570136  0.34580441  0.21529044     0.12900
H2285       H  0.02202798  0.29852544  0.18707793     0.12900
H2286       H  0.99470822  0.28725558  0.18047730     0.12600
H2287       H  0.96471132  0.28828532  0.18301882     0.13200
H2288       H  0.96838836  0.33383528  0.20985500     0.15100
C2289       C  0.88207103  0.30477673  0.16173047    -0.04900
C2290       C  0.87578497  0.28945369  0.15677963    -0.04800
C2291       C  0.86433569  0.28832629  0.14393013    -0.23000
C2292       C  0.85883705  0.30252276  0.13584146     0.19200
C2293       C  0.86552752  0.31794118  0.14026772     0.16400
C2294       C  0.87719433  0.31896077  0.15308250    -0.18000
C2295       C  0.85993740  0.33214501  0.13224055    -0.19900
C2296       C  0.84731048  0.33117876  0.12051042    -0.12400
C2297       C  0.84012484  0.31598138  0.11645026     0.04200
C2298       C  0.84629792  0.30162324  0.12387988    -0.24600
H2299       H  0.87938505  0.27833205  0.16315219     0.09300
H2300       H  0.85941639  0.27639035  0.14065256     0.12900
H2301       H  0.88196024  0.33085549  0.15673737     0.12900
H2302       H  0.86497036  0.34406683  0.13539561     0.12600
H2303       H  0.84284774  0.34241877  0.11494189     0.13200
H2304       H  0.84088642  0.28982119  0.12087548     0.15100
C2305       C  0.77225448  0.41528329  0.26780882    -0.04900
C2306       C  0.75708781  0.40790671  0.27169140    -0.04800
C2307       C  0.74411800  0.40792225  0.26028161    -0.23000
C2308       C  0.74612137  0.41532493  0.24481070     0.19200
C2309       C  0.76124932  0.42301372  0.24096013     0.16400
C2310       C  0.77413749  0.42299998  0.25246634    -0.18000
C2311       C  0.76338565  0.43037288  0.22553807    -0.19900
C2312       C  0.75074332  0.42993479  0.21389149    -0.12400
C2313       C  0.73569142  0.42220501  0.21745497     0.04200
C2314       C  0.73339191  0.41500333  0.23303555    -0.24600
H2315       H  0.75534329  0.40188568  0.28344414     0.09300
H2316       H  0.73261215  0.40198272  0.26347719     0.12900
H2317       H  0.78575605  0.42877234  0.24933431     0.12900
H2318       H  0.77490824  0.43631945  0.22240920     0.12600
H2319       H  0.75281752  0.43556667  0.20200025     0.13200
H2320       H  0.72184748  0.40895398  0.23590036     0.15100
C2321       C  0.82492679  0.46477706  0.30674673    -0.04900
C2322       C  0.83741311  0.47237844  0.29750027    -0.04800
C2323       C  0.83863124  0.48951756  0.29676553    -0.23000
C2324       C  0.82737300  0.49943033  0.30526156     0.19200
C2325       C  0.81513448  0.49193893  0.31507900     0.16400
C2326       C  0.81401522  0.47470106  0.31579868    -0.18000
C2327       C  0.80391247  0.50182025  0.32363690    -0.19900
C2328       C  0.80449295  0.51892028  0.32212912    -0.12400
C2329       C  0.81627872  0.52653324  0.31201633     0.04200
C2330       C  0.82786846  0.51666517  0.30377592    -0.24600
H2331       H  0.84597634  0.46506609  0.29041444     0.09300
H2332       H  0.84815770  0.49501556  0.28924369     0.12900
H2333       H  0.80431902  0.46903970  0.32298844     0.12900
H2334       H  0.79447365  0.49631283  0.33126264     0.12600
H2335       H  0.79541127  0.52618532  0.32859592     0.13200
H2336       H  0.83702969  0.52235131  0.29593799     0.15100
C2337       C  0.84441239  0.37632395  0.27273212    -0.04900
C2338       C  0.83905437  0.35990239  0.27200372    -0.04800
C2339       C  0.84766295  0.34825591  0.26278120    -0.23000
C2340       C  0.86178766  0.35278712  0.25398952     0.19200
C2341       C  0.86740103  0.36921204  0.25466992     0.16400
C2342       C  0.85872209  0.38086594  0.26407993    -0.18000
C2343       C  0.88153903  0.37369816  0.24582873    -0.19900
C2344       C  0.88997831  0.36206981  0.23636664    -0.12400
C2345       C  0.88447059  0.34571704  0.23555918     0.04200
C2346       C  0.87033475  0.34117642  0.24447875    -0.24600
H2347       H  0.82812311  0.35603227  0.27856505     0.09300
H2348       H  0.84319762  0.33571537  0.26244344     0.12900
H2349       H  0.86298659  0.39347496  0.26450173     0.12900
H2350       H  0.88605554  0.38621616  0.24619679     0.12600
H2351       H  0.90084676  0.36588765  0.22967513     0.13200
H2352       H  0.86595561  0.32860366  0.24402418     0.15100
C2353       C  0.46768413  0.30593113  0.17184454    -0.04900
C2354       C  0.47604317  0.29859675  0.15863569    -0.04800
C2355       C  0.49322669  0.29903568  0.15782119    -0.23000
C2356       C  0.50238566  0.30682010  0.17020968     0.19200
C2357       C  0.49410520  0.31491587  0.18315790     0.16400
C2358       C  0.47680289  0.31444812  0.18388362    -0.18000
C2359       C  0.50330939  0.32274625  0.19550727    -0.19900
C2360       C  0.52051303  0.32175589  0.19553495    -0.12400
C2361       C  0.52881596  0.31297980  0.18318247     0.04200
C2362       C  0.51966604  0.30600636  0.17024112    -0.24600
H2363       H  0.46931926  0.29198198  0.14920366     0.09300
H2364       H  0.49936697  0.29284604  0.14775944     0.12900
H2365       H  0.47049346  0.32021451  0.19410011     0.12900
H2366       H  0.49719459  0.32914990  0.20544915     0.12600
H2367       H  0.52728462  0.32735070  0.20557948     0.13200
H2368       H  0.52592632  0.29928970  0.16059265     0.15100
C2369       C  0.65425184  0.38927953  0.18846263    -0.04900
C2370       C  0.65065783  0.38425654  0.20461924    -0.04800
C2371       C  0.63831521  0.37266171  0.20762129    -0.23000
C2372       C  0.62940552  0.36581616  0.19450231     0.19200
C2373       C  0.63250180  0.37126822  0.17827436     0.16400
C2374       C  0.64482620  0.38300497  0.17536954    -0.18000
C2375       C  0.62361162  0.36447679  0.16514042    -0.19900
C2376       C  0.61222004  0.35195003  0.16795307    -0.12400
C2377       C  0.60950404  0.34594880  0.18394244     0.04200
C2378       C  0.61788821  0.35321544  0.19724912    -0.24600
H2379       H  0.65770191  0.38896576  0.21493104     0.09300
H2380       H  0.63605351  0.36872693  0.22015244     0.12900
H2381       H  0.64747239  0.38678817  0.16285969     0.12900
H2382       H  0.62577019  0.36855415  0.15263560     0.12600
H2383       H  0.60591225  0.34658528  0.15749155     0.13200
H2384       H  0.61586335  0.34872232  0.20963935     0.15100
C2385       C  0.72072615  0.22647604  0.09155099    -0.04900
C2386       C  0.73248606  0.22543416  0.10426312    -0.04800
C2387       C  0.74611393  0.23600726  0.10456766    -0.23000
C2388       C  0.74816528  0.24786442  0.09219992     0.19200
C2389       C  0.73671456  0.24855711  0.07905926     0.16400
C2390       C  0.72318666  0.23782534  0.07876457    -0.18000
C2391       C  0.73858261  0.26041514  0.06672783    -0.19900
C2392       C  0.75112904  0.27206986  0.06784414    -0.12400
C2393       C  0.76218923  0.27199214  0.08118740     0.04200
C2394       C  0.76100493  0.25948267  0.09307945    -0.24600
H2395       H  0.73091676  0.21673428  0.11422073     0.09300
H2396       H  0.75477487  0.23521794  0.11470919     0.12900
H2397       H  0.71427517  0.23869528  0.06883702     0.12900
H2398       H  0.72999805  0.26103518  0.05650792     0.12600
H2399       H  0.75190284  0.28146576  0.05843604     0.13200
H2400       H  0.76947437  0.25931583  0.10341836     0.15100
C2401       C  0.63987380  0.23001159  0.11972291    -0.04900
C2402       C  0.62349361  0.23190312  0.11432310    -0.04800
C2403       C  0.61265909  0.24239582  0.12263885    -0.23000
C2404       C  0.61798282  0.25112093  0.13657530     0.19200
C2405       C  0.63442824  0.24924656  0.14207578     0.16400
C2406       C  0.64522712  0.23879239  0.13362625    -0.18000
C2407       C  0.63984333  0.25780542  0.15600876    -0.19900
C2408       C  0.62907771  0.26803472  0.16453983    -0.12400
C2409       C  0.61265634  0.27000886  0.15932347     0.04200
C2410       C  0.60718277  0.26156604  0.14519862    -0.24600
H2411       H  0.61907100  0.22531814  0.10360776     0.09300
H2412       H  0.60011670  0.24364128  0.11820094     0.12900
H2413       H  0.65781010  0.23744642  0.13794362     0.12900
H2414       H  0.65240513  0.25651675  0.16038568     0.12600
H2415       H  0.63364927  0.27438235  0.17533791     0.13200
H2416       H  0.59454982  0.26295599  0.14105603     0.15100
C2417       C  0.57408299  0.21708595  0.26711413    -0.04900
C2418       C  0.56797145  0.21283259  0.25148679    -0.04800
C2419       C  0.56712131  0.22448432  0.23894335    -0.23000
C2420       C  0.57241609  0.24060834  0.24178396     0.19200
C2421       C  0.57839593  0.24512776  0.25749771     0.16400
C2422       C  0.57914960  0.23333722  0.27010351    -0.18000
C2423       C  0.58375710  0.26129160  0.26021808    -0.19900
C2424       C  0.58354078  0.27275417  0.24737770    -0.12400
C2425       C  0.57787111  0.26825755  0.23165702     0.04200
C2426       C  0.57210111  0.25218855  0.22904444    -0.24600
H2427       H  0.56396766  0.20040837  0.24888257     0.09300
H2428       H  0.56249731  0.22083334  0.22696801     0.12900
H2429       H  0.58387005  0.23674814  0.28211724     0.12900
H2430       H  0.58834110  0.26499745  0.27218888     0.12600
H2431       H  0.58801505  0.28507339  0.24968980     0.13200
H2432       H  0.56769142  0.24855261  0.21697734     0.15100
C2433       C  0.52544188  0.17080340  0.31181737    -0.04900
C2434       C  0.51825667  0.15673470  0.30476427    -0.04800
C2435       C  0.50113920  0.15525072  0.30342219    -0.23000
C2436       C  0.49083455  0.16778518  0.30916863     0.19200
C2437       C  0.49789030  0.18176198  0.31676059     0.16400
C2438       C  0.51512404  0.18318818  0.31803953    -0.18000
C2439       C  0.48759771  0.19427733  0.32255688    -0.19900
C2440       C  0.47053364  0.19315986  0.32050881    -0.12400
C2441       C  0.46338367  0.17952421  0.31260542     0.04200
C2442       C  0.47363883  0.16674965  0.30712706    -0.24600
H2443       H  0.52590202  0.14706252  0.29977298     0.09300
H2444       H  0.49597855  0.14443291  0.29759459     0.12900
H2445       H  0.52049239  0.19412773  0.32345267     0.12900
H2446       H  0.49275736  0.20506472  0.32844160     0.12600
H2447       H  0.46293936  0.20318717  0.32483765     0.13200
H2448       H  0.46829529  0.15618482  0.30099048     0.15100
C2449       C  0.68250152  0.96786226  0.19506146    -0.04900
C2450       C  0.69497404  0.97628798  0.18655976    -0.04800
C2451       C  0.69477064  0.99338616  0.18544154    -0.23000
C2452       C  0.68209160  0.00239150  0.19282726     0.19200
C2453       C  0.66911113  0.99405064  0.20084456     0.16400
C2454       C  0.66936036  0.97682077  0.20186409    -0.18000
C2455       C  0.65644478  0.00313472  0.20822033    -0.19900
C2456       C  0.65703743  0.02030880  0.20830171    -0.12400
C2457       C  0.67028207  0.02867895  0.20098536     0.04200
C2458       C  0.68254335  0.01960662  0.19287247    -0.24600
H2459       H  0.70521191  0.96968722  0.18118825     0.09300
H2460       H  0.70477641  0.99958556  0.17918748     0.12900
H2461       H  0.65965987  0.97046015  0.20843738     0.12900
H2462       H  0.64634710  0.99696401  0.21435207     0.12600
H2463       H  0.64744330  0.02701899  0.21462971     0.13200
H2464       H  0.69280931  0.02591099  0.18714949     0.15100
C2465       C  0.67487175  0.15177403  0.12097205    -0.04900
C2466       C  0.66113167  0.14124039  0.12102188    -0.04800
C2467       C  0.66037140  0.12794214  0.13194063    -0.23000
C2468       C  0.67331092  0.12499603  0.14306124     0.19200
C2469       C  0.68748303  0.13509077  0.14257117     0.16400
C2470       C  0.68819703  0.14832478  0.13152385    -0.18000
C2471       C  0.70049144  0.13217102  0.15355500    -0.19900
C2472       C  0.69919720  0.11985774  0.16542850    -0.12400
C2473       C  0.68485301  0.11024477  0.16661856     0.04200
C2474       C  0.67208322  0.11259291  0.15507941    -0.24600
H2475       H  0.65075473  0.14355524  0.11293769     0.09300
H2476       H  0.64946328  0.12026134  0.13201071     0.12900
H2477       H  0.69890956  0.15628907  0.13157292     0.12900
H2478       H  0.71148471  0.13972855  0.15328249     0.12600
H2479       H  0.70921610  0.11830850  0.17412809     0.13200
H2480       H  0.66098656  0.10521421  0.15582496     0.15100
C2481       C  0.64791237  0.11456373  0.23881678    -0.04900
C2482       C  0.65437021  0.13021937  0.24229973    -0.04800
C2483       C  0.64557376  0.14138614  0.25186576    -0.23000
C2484       C  0.63015566  0.13710053  0.25825472     0.19200
C2485       C  0.62346669  0.12141943  0.25483234     0.16400
C2486       C  0.63235547  0.11025499  0.24507357    -0.18000
C2487       C  0.60806709  0.11715544  0.26135764    -0.19900
C2488       C  0.59945751  0.12824943  0.27126421    -0.12400
C2489       C  0.60603549  0.14384152  0.27477496     0.04200
C2490       C  0.62138935  0.14821140  0.26810962    -0.24600
H2491       H  0.66632268  0.13386197  0.23765358     0.09300
H2492       H  0.65089514  0.15333984  0.25436166     0.12900
H2493       H  0.62727571  0.09820150  0.24253605     0.12900
H2494       H  0.60271185  0.10521777  0.25886743     0.12600
H2495       H  0.58760139  0.12462608  0.27615750     0.13200
H2496       H  0.62658819  0.16020995  0.27068253     0.15100
C2497       C  0.76857256  0.08112342  0.28380379    -0.04900
C2498       C  0.77288137  0.08684717  0.26806821    -0.04800
C2499       C  0.76132117  0.08684887  0.25525061    -0.23000
C2500       C  0.74523015  0.08116846  0.25796044     0.19200
C2501       C  0.74082335  0.07530132  0.27372174     0.16400
C2502       C  0.75249971  0.07527864  0.28648927    -0.18000
C2503       C  0.72474979  0.06969682  0.27652083    -0.19900
C2504       C  0.71306551  0.07006638  0.26388870    -0.12400
C2505       C  0.71722530  0.07599951  0.24819435     0.04200
C2506       C  0.73341779  0.08142834  0.24526902    -0.24600
H2507       H  0.78518167  0.09141564  0.26568662     0.09300
H2508       H  0.76493405  0.09139931  0.24325910     0.12900
H2509       H  0.74900037  0.07086054  0.29857207     0.12900
H2510       H  0.72116524  0.06516084  0.28852777     0.12600
H2511       H  0.70068509  0.06583309  0.26647129     0.13200
H2512       H  0.73675678  0.08608662  0.23323245     0.15100
C2513       C  0.81647643  0.03086065  0.32922844    -0.04900
C2514       C  0.82492218  0.02309630  0.31631244    -0.04800
C2515       C  0.82634157  0.00599583  0.31581845    -0.23000
C2516       C  0.81928735  0.99631055  0.32820768     0.19200
C2517       C  0.81139729  0.00398782  0.34163841     0.16400
C2518       C  0.81012299  0.02120798  0.34211552    -0.18000
C2519       C  0.80432896  0.99427368  0.35401261    -0.19900
C2520       C  0.80436607  0.97714342  0.35269047    -0.12400
C2521       C  0.81154119  0.96940006  0.33901837     0.04200
C2522       C  0.81940132  0.97909403  0.32703692    -0.24600
H2523       H  0.82997801  0.03022000  0.30626577     0.09300
H2524       H  0.83251993  0.00032795  0.30547628     0.12900
H2525       H  0.80361280  0.02702820  0.35217103     0.12900
H2526       H  0.79831183  0.99993017  0.36445412     0.12600
H2527       H  0.79827361  0.96997536  0.36211132     0.13200
H2528       H  0.82501118  0.97329200  0.31644062     0.15100
C2529       C  0.65619129  0.17744462  0.38951872    -0.04900
C2530       C  0.64932887  0.16187829  0.38644388    -0.04800
C2531       C  0.63594871  0.16006498  0.37570818    -0.23000
C2532       C  0.62916766  0.17378364  0.36776806     0.19200
C2533       C  0.63561363  0.18957100  0.37112098     0.16400
C2534       C  0.64903066  0.19131582  0.38201475    -0.18000
C2535       C  0.62884142  0.20327771  0.36312986    -0.19900
C2536       C  0.61626827  0.20130004  0.35146755    -0.12400
C2537       C  0.61013672  0.18559549  0.34762236     0.04200
C2538       C  0.61642182  0.17190669  0.35614095    -0.24600
H2539       H  0.65454994  0.15099876  0.39207400     0.09300
H2540       H  0.63113994  0.14787366  0.37334064     0.12900
H2541       H  0.65417108  0.20339828  0.38427758     0.12900
H2542       H  0.63355320  0.21548967  0.36558361     0.12600
H2543       H  0.61164274  0.21205728  0.34512391     0.13200
H2544       H  0.61183999  0.15972486  0.35329213     0.15100
C2545       C  0.73658766  0.15256444  0.38768948    -0.04900
C2546       C  0.74248291  0.15958479  0.37303043    -0.04800
C2547       C  0.75326832  0.15096512  0.36286586    -0.23000
C2548       C  0.75839734  0.13510153  0.36711339     0.19200
C2549       C  0.75278773  0.12790234  0.38190192     0.16400
C2550       C  0.74192052  0.13669348  0.39213541    -0.18000
C2551       C  0.75803303  0.11198742  0.38605164    -0.19900
C2552       C  0.76848380  0.10322934  0.37551649    -0.12400
C2553       C  0.77388616  0.11023420  0.36066014     0.04200
C2554       C  0.76888387  0.12627654  0.35666236    -0.24600
H2555       H  0.73867230  0.17178540  0.36933071     0.09300
H2556       H  0.75749638  0.15667631  0.35159403     0.12900
H2557       H  0.73752908  0.13115033  0.40342977     0.12900
H2558       H  0.75392021  0.10625097  0.39734902     0.12600
H2559       H  0.77216548  0.09089698  0.37889167     0.13200
H2560       H  0.77298028  0.13186552  0.34527433     0.15100
C2561       C  0.92449011  0.23363607  0.29385875    -0.04900
C2562       C  0.93604322  0.24649510  0.29381649    -0.04800
C2563       C  0.93599532  0.25823352  0.28131644    -0.23000
C2564       C  0.92429707  0.25744855  0.26863962     0.19200
C2565       C  0.91262874  0.24454819  0.26840759     0.16400
C2566       C  0.91282800  0.23265505  0.28100692    -0.18000
C2567       C  0.90092732  0.24390201  0.25564807    -0.19900
C2568       C  0.90075237  0.25596503  0.24333731    -0.12400
C2569       C  0.91222169  0.26891310  0.24361296     0.04200
C2570       C  0.92401657  0.26948598  0.25629675    -0.24600
H2571       H  0.94516599  0.24751442  0.30351916     0.09300
H2572       H  0.94504441  0.26802380  0.28164914     0.12900
H2573       H  0.90380002  0.22283537  0.28094292     0.12900
H2574       H  0.89186410  0.23413128  0.25523753     0.12600
H2575       H  0.89151797  0.25527536  0.23371065     0.13200
H2576       H  0.93296890  0.27937387  0.25663135     0.15100
C2577       C  0.97697965  0.18757044  0.34008470    -0.04900
C2578       C  0.98597763  0.19201562  0.35422535    -0.04800
C2579       C  0.00319083  0.19069409  0.35454758    -0.23000
C2580       C  0.01173686  0.18498910  0.34069146     0.19200
C2581       C  0.00274340  0.17982861  0.32669140     0.16400
C2582       C  0.98547254  0.18106124  0.32651329    -0.18000
C2583       C  0.01120011  0.17409729  0.31283111    -0.19900
C2584       C  0.02841224  0.17416745  0.31252195    -0.12400
C2585       C  0.03754653  0.17994753  0.32606319     0.04200
C2586       C  0.02909349  0.18496300  0.34032138    -0.24600
H2587       H  0.97974436  0.19696718  0.36488841     0.09300
H2588       H  0.00984048  0.19459010  0.36545195     0.12900
H2589       H  0.97870603  0.17752002  0.31555127     0.12900
H2590       H  0.00450253  0.17001465  0.30202434     0.12600
H2591       H  0.03457254  0.17023190  0.30140096     0.13200
H2592       H  0.03597340  0.18942780  0.35086506     0.15100
C2593       C  0.89243869  0.15604757  0.33566937    -0.04900
C2594       C  0.88846513  0.14822757  0.35056954    -0.04800
C2595       C  0.87652246  0.13583760  0.35103944    -0.23000
C2596       C  0.86824536  0.13109056  0.33662646     0.19200
C2597       C  0.87231952  0.13869415  0.32153221     0.16400
C2598       C  0.88443754  0.15102653  0.32113160    -0.18000
C2599       C  0.86392003  0.13411264  0.30714807    -0.19900
C2600       C  0.85135252  0.12238172  0.30775320    -0.12400
C2601       C  0.84701608  0.11488532  0.32272054     0.04200
C2602       C  0.85571062  0.11915797  0.33710892    -0.24600
H2603       H  0.89439496  0.15189243  0.36194757     0.09300
H2604       H  0.87356073  0.13016924  0.36272964     0.12900
H2605       H  0.88731849  0.15700144  0.30956720     0.12900
H2606       H  0.86687143  0.13980802  0.29546751     0.12600
H2607       H  0.84485927  0.11933040  0.29649792     0.13200
H2608       H  0.85243271  0.11354414  0.34874666     0.15100
C2609       C  0.78199690  0.26378365  0.42679378    -0.04900
C2610       C  0.78519042  0.24977703  0.43641972    -0.04800
C2611       C  0.77366807  0.23713903  0.43759958    -0.23000
C2612       C  0.75865017  0.23818336  0.42916821     0.19200
C2613       C  0.75499154  0.25232812  0.41974628     0.16400
C2614       C  0.76670617  0.26509638  0.41861277    -0.18000
C2615       C  0.73982695  0.25322961  0.41140148    -0.19900
C2616       C  0.72870700  0.24004022  0.41195875    -0.12400
C2617       C  0.73254794  0.22573434  0.42088010     0.04200
C2618       C  0.74743860  0.22508401  0.42972205    -0.24600
H2619       H  0.79678216  0.24843950  0.44292239     0.09300
H2620       H  0.77662893  0.22641110  0.44492955     0.12900
H2621       H  0.76404691  0.27584983  0.41120484     0.12900
H2622       H  0.73670752  0.26398478  0.40418623     0.12600
H2623       H  0.71728811  0.24087216  0.40507679     0.13200
H2624       H  0.75053586  0.21417542  0.43673278     0.15100
C2625       C  0.81222041  0.38652836  0.34799267    -0.04900
C2626       C  0.79673827  0.38162060  0.35399079    -0.04800
C2627       C  0.79551344  0.37069716  0.36721283    -0.23000
C2628       C  0.80975907  0.36438685  0.37468164     0.19200
C2629       C  0.82539370  0.36983508  0.36929537     0.16400
C2630       C  0.82653437  0.38091429  0.35603887    -0.18000
C2631       C  0.83963509  0.36360081  0.37684207    -0.19900
C2632       C  0.83843914  0.35152555  0.38902804    -0.12400
C2633       C  0.82299420  0.34537430  0.39388331     0.04200
C2634       C  0.80864842  0.35222473  0.38694994    -0.24600
H2635       H  0.78551340  0.38582530  0.34810933     0.09300
H2636       H  0.78341753  0.36679066  0.37125419     0.12900
H2637       H  0.83855355  0.38461106  0.35157585     0.12900
H2638       H  0.85172709  0.36769265  0.37297289     0.12600
H2639       H  0.84968715  0.34650337  0.39416949     0.13200
H2640       H  0.79666024  0.34766233  0.39063165     0.15100
C2641       C  0.85634766  0.27162180  0.39311453    -0.04900
C2642       C  0.85310020  0.27047861  0.37615747    -0.04800
C2643       C  0.86288690  0.26077609  0.36602467    -0.23000
C2644       C  0.87606395  0.25187036  0.37265317     0.19200
C2645       C  0.87976356  0.25308629  0.38961830     0.16400
C2646       C  0.86992899  0.26308842  0.39977252    -0.18000
C2647       C  0.89301165  0.24400994  0.39609166    -0.19900
C2648       C  0.90223624  0.23361623  0.38589963    -0.12400
C2649       C  0.89836167  0.23216595  0.36908971     0.04200
C2650       C  0.88536990  0.24152774  0.36256210    -0.24600
H2651       H  0.84282816  0.27700875  0.37069089     0.09300
H2652       H  0.85996088  0.26002269  0.35302483     0.12900
H2653       H  0.87256191  0.26388298  0.41283223     0.12900
H2654       H  0.89609513  0.24478254  0.40904965     0.12600
H2655       H  0.91224536  0.22656689  0.39119659     0.13200
H2656       H  0.88231807  0.24062690  0.34959284     0.15100
C2657       C  0.11535448  0.64919106  0.76894297    -0.04900
C2658       C  0.13207780  0.65369027  0.76965076    -0.04800
C2659       C  0.14386549  0.64518317  0.76058947    -0.23000
C2660       C  0.13915708  0.63207206  0.75048646     0.19200
C2661       C  0.12242319  0.62724054  0.74977304     0.16400
C2662       C  0.11060055  0.63579285  0.75908067    -0.18000
C2663       C  0.11782855  0.61406400  0.73961577    -0.19900
C2664       C  0.12966490  0.60587855  0.73018026    -0.12400
C2665       C  0.14626773  0.61078828  0.73065890     0.04200
C2666       C  0.15092356  0.62385235  0.74095627    -0.24600
H2667       H  0.13607998  0.66391301  0.77719701     0.09300
H2668       H  0.15664181  0.64899650  0.76133573     0.12900
H2669       H  0.09773678  0.63226658  0.75838214     0.12900
H2670       H  0.10508683  0.61014606  0.73890347     0.12600
H2671       H  0.12579721  0.59579834  0.72238036     0.13200
H2672       H  0.16371761  0.62765804  0.74155211     0.15100
C2673       C  0.07980640  0.76749859  0.72020440    -0.04900
C2674       C  0.08523712  0.77237633  0.73589342    -0.04800
C2675       C  0.08535997  0.76120938  0.74897660    -0.23000
C2676       C  0.08000907  0.74500009  0.74657432     0.19200
C2677       C  0.07429963  0.74007182  0.73088443     0.16400
C2678       C  0.07428212  0.75130925  0.71782842    -0.18000
C2679       C  0.06883713  0.72393097  0.72844836    -0.19900
C2680       C  0.06933385  0.71265031  0.74136239    -0.12400
C2681       C  0.07533199  0.71729256  0.75692547     0.04200
C2682       C  0.08047395  0.73357972  0.75951183    -0.24600
H2683       H  0.08955109  0.78478750  0.73801213     0.09300
H2684       H  0.08974320  0.76521362  0.76092490     0.12900
H2685       H  0.07001769  0.74740944  0.70579306     0.12900
H2686       H  0.06435042  0.71998212  0.71651659     0.12600
H2687       H  0.06525079  0.70018956  0.73907760     0.13200
H2688       H  0.08506465  0.73730187  0.77148197     0.15100
C2689       C  0.16915578  0.69233229  0.52983700    -0.04900
C2690       C  0.15647502  0.70062031  0.52145049    -0.04800
C2691       C  0.15585258  0.70068812  0.50425897    -0.23000
C2692       C  0.16793790  0.69250241  0.49511006     0.19200
C2693       C  0.18041398  0.68361076  0.50339709     0.16400
C2694       C  0.18089848  0.68350652  0.52069666    -0.18000
C2695       C  0.19257339  0.67553677  0.49423183    -0.19900
C2696       C  0.19286109  0.67697191  0.47708438    -0.12400
C2697       C  0.18089661  0.68634102  0.46876420     0.04200
C2698       C  0.16814909  0.69365574  0.47785360    -0.24600
H2699       H  0.14729806  0.70751856  0.52818043     0.09300
H2700       H  0.14618419  0.70754106  0.49812134     0.12900
H2701       H  0.19074147  0.67705171  0.52700665     0.12900
H2702       H  0.20217996  0.66857881  0.50034975     0.12600
H2703       H  0.20276670  0.67114669  0.47036274     0.13200
H2704       H  0.15888036  0.70094577  0.47159423     0.15100
C2705       C  0.17636059  0.65509900  0.61104159    -0.04900
C2706       C  0.16160891  0.64662180  0.61416449    -0.04800
C2707       C  0.16104252  0.63428181  0.62611446    -0.23000
C2708       C  0.17520568  0.63028121  0.63520562     0.19200
C2709       C  0.19025077  0.63828252  0.63170093     0.16400
C2710       C  0.19075137  0.65055819  0.61959406    -0.18000
C2711       C  0.20441339  0.63430615  0.64079140    -0.19900
C2712       C  0.20354226  0.62299378  0.65369559    -0.12400
C2713       C  0.18850376  0.61546381  0.65773070     0.04200
C2714       C  0.17444619  0.61887022  0.64813684    -0.24600
H2715       H  0.15036125  0.64990220  0.60775342     0.09300
H2716       H  0.14942005  0.62821785  0.62858451     0.12900
H2717       H  0.20220988  0.65700850  0.61730428     0.12900
H2718       H  0.21606733  0.64026393  0.63820982     0.12600
H2719       H  0.21455041  0.62051386  0.66084215     0.13200
H2720       H  0.16279510  0.61305261  0.65105644     0.15100
C2721       C  0.14398222  0.72800822  0.61555728    -0.04900
C2722       C  0.14675898  0.72683163  0.63260623    -0.04800
C2723       C  0.13823256  0.73686486  0.64356064    -0.23000
C2724       C  0.12681946  0.74835129  0.63767433     0.19200
C2725       C  0.12362495  0.74944836  0.62059485     0.16400
C2726       C  0.13216192  0.73918825  0.60962994    -0.18000
C2727       C  0.11216529  0.76099383  0.61479367    -0.19900
C2728       C  0.10410266  0.77145795  0.62579336    -0.12400
C2729       C  0.10737861  0.77055933  0.64276355     0.04200
C2730       C  0.11870024  0.75887341  0.64860648    -0.24600
H2731       H  0.15574965  0.71828782  0.63749812     0.09300
H2732       H  0.14076405  0.73581576  0.65662108     0.12900
H2733       H  0.12993765  0.74022029  0.59651114     0.12900
H2734       H  0.10951566  0.76200048  0.60175662     0.12600
H2735       H  0.09533011  0.78028279  0.62101427     0.13200
H2736       H  0.12123411  0.75796048  0.66168330     0.15100
C2737       C  0.17596199  0.67384841  0.97621904    -0.04900
C2738       C  0.17035887  0.68787276  0.98457391    -0.04800
C2739       C  0.17016184  0.68833559  0.00174755    -0.23000
C2740       C  0.17561047  0.67479333  0.01089838     0.19200
C2741       C  0.18042946  0.66028937  0.00266689     0.16400
C2742       C  0.18049051  0.65987159  0.98536937    -0.18000
C2743       C  0.18582742  0.64674131  0.01188238    -0.19900
C2744       C  0.18731126  0.64787749  0.02900275    -0.12400
C2745       C  0.18336448  0.66255438  0.03720602     0.04200
C2746       C  0.17701730  0.67579644  0.02808694    -0.24600
H2747       H  0.16674065  0.69877067  0.97783445     0.09300
H2748       H  0.16630188  0.69950535  0.00786244     0.12900
H2749       H  0.18477389  0.64895303  0.97907275     0.12900
H2750       H  0.18943649  0.63546408  0.00581212     0.12600
H2751       H  0.19210941  0.63744993  0.03575859     0.13200
H2752       H  0.17381663  0.68714051  0.03427463     0.15100
C2753       C  0.14398922  0.67788878  0.89147420    -0.04900
C2754       C  0.13441977  0.66360855  0.88956374    -0.04800
C2755       C  0.12264816  0.66247903  0.87699020    -0.23000
C2756       C  0.12028223  0.67558362  0.86602699     0.19200
C2757       C  0.12928645  0.69027979  0.86830289     0.16400
C2758       C  0.14097392  0.69138337  0.88106589    -0.18000
C2759       C  0.12694093  0.70338999  0.85735620    -0.19900
C2760       C  0.11632736  0.70171851  0.84387201    -0.12400
C2761       C  0.10776723  0.68694559  0.84110814     0.04200
C2762       C  0.10953423  0.67403023  0.85249455    -0.24600
H2763       H  0.13642443  0.65307046  0.89745106     0.09300
H2764       H  0.11577185  0.65116005  0.87552537     0.12900
H2765       H  0.14820018  0.70250296  0.88244095     0.12900
H2766       H  0.13366163  0.71478409  0.85895771     0.12600
H2767       H  0.11514208  0.71188705  0.83535731     0.13200
H2768       H  0.10296414  0.66259574  0.85055574     0.15100
C2769       C  0.26595555  0.58785827  0.78471101    -0.04900
C2770       C  0.27049929  0.59755373  0.77114045    -0.04800
C2771       C  0.26022417  0.59865863  0.75729260    -0.23000
C2772       C  0.24523043  0.59005556  0.75676157     0.19200
C2773       C  0.24069913  0.58012647  0.77029547     0.16400
C2774       C  0.25105531  0.57907625  0.78410669    -0.18000
C2775       C  0.22578300  0.57150119  0.76990313    -0.19900
C2776       C  0.21537037  0.57271582  0.75628152    -0.12400
C2777       C  0.21962260  0.58255527  0.74271579     0.04200
C2778       C  0.23464413  0.59123478  0.74302613    -0.24600
H2779       H  0.28190324  0.60446826  0.77132027     0.09300
H2780       H  0.26394976  0.60632770  0.74705907     0.12900
H2781       H  0.24739670  0.57154010  0.79447693     0.12900
H2782       H  0.22212079  0.56384586  0.78017485     0.12600
H2783       H  0.20389104  0.56592589  0.75641224     0.13200
H2784       H  0.23805293  0.59890138  0.73267259     0.15100
C2785       C  0.21999859  0.64335277  0.89813023    -0.04900
C2786       C  0.22212767  0.62696717  0.90315955    -0.04800
C2787       C  0.23299594  0.61657849  0.89474534    -0.23000
C2788       C  0.24191585  0.62240107  0.88114613     0.19200
C2789       C  0.23971765  0.63882427  0.87596003     0.16400
C2790       C  0.22883919  0.64914064  0.88445183    -0.18000
C2791       C  0.24847122  0.64473277  0.86236465    -0.19900
C2792       C  0.25937321  0.63451160  0.85396878    -0.12400
C2793       C  0.26182685  0.61817046  0.85899995     0.04200
C2794       C  0.25299749  0.61215839  0.87264656    -0.24600
H2795       H  0.21545607  0.62220623  0.91365273     0.09300
H2796       H  0.23446289  0.60402249  0.89890427     0.12900
H2797       H  0.22730135  0.66173272  0.88039869     0.12900
H2798       H  0.24689708  0.65728284  0.85821463     0.12600
H2799       H  0.26594369  0.63945671  0.84349613     0.13200
H2800       H  0.25468500  0.59955619  0.87659177     0.15100
C2801       C  0.11112776  0.84534494  0.68125258    -0.04900
C2802       C  0.11142074  0.85699836  0.66848197    -0.04800
C2803       C  0.12244859  0.87023505  0.66899606    -0.23000
C2804       C  0.13344019  0.87199297  0.68225315     0.19200
C2805       C  0.13291840  0.86054734  0.69533118     0.16400
C2806       C  0.12177740  0.84738381  0.69477084    -0.18000
C2807       C  0.14382394  0.86219894  0.70860944    -0.19900
C2808       C  0.15550398  0.87476300  0.70873628    -0.12400
C2809       C  0.15656273  0.88593082  0.69558223     0.04200
C2810       C  0.14524737  0.88467179  0.68247229    -0.24600
H2811       H  0.10330201  0.85573262  0.65795644     0.09300
H2812       H  0.12259197  0.87890875  0.65888203     0.12900
H2813       H  0.12168491  0.83850090  0.70471367     0.12900
H2814       H  0.14355185  0.85356268  0.71875586     0.12600
H2815       H  0.16404791  0.87543830  0.71898027     0.13200
H2816       H  0.14592992  0.89321709  0.67226436     0.15100
C2817       C  0.25472565  0.78403998  0.58685920    -0.04900
C2818       C  0.23877179  0.78955799  0.58296863    -0.04800
C2819       C  0.22579238  0.77846783  0.58123200    -0.23000
C2820       C  0.22851753  0.76163113  0.58336708     0.19200
C2821       C  0.24451650  0.75587584  0.58718009     0.16400
C2822       C  0.25755195  0.76712268  0.58887355    -0.18000
C2823       C  0.24713287  0.73899213  0.58938968    -0.19900
C2824       C  0.23398666  0.72795519  0.58799167    -0.12400
C2825       C  0.21804210  0.73361439  0.58429509     0.04200
C2826       C  0.21543724  0.75049350  0.58190275    -0.24600
H2827       H  0.23626388  0.80252454  0.58137952     0.09300
H2828       H  0.21360315  0.78307562  0.57832457     0.12900
H2829       H  0.26980248  0.76273693  0.59188686     0.12900
H2830       H  0.25929755  0.73434272  0.59232042     0.12600
H2831       H  0.23628083  0.71499393  0.58990759     0.13200
H2832       H  0.20318507  0.75501357  0.57909011     0.15100
C2833       C  0.30782327  0.83111924  0.54338007    -0.04900
C2834       C  0.30127396  0.84491778  0.53530072    -0.04800
C2835       C  0.30275006  0.84664483  0.51825253    -0.23000
C2836       C  0.31077987  0.83458238  0.50895288     0.19200
C2837       C  0.31822108  0.82110763  0.51704078     0.16400
C2838       C  0.31677583  0.81950353  0.53420875    -0.18000
C2839       C  0.32626101  0.80905879  0.50771889    -0.19900
C2840       C  0.32603970  0.80982155  0.49051896    -0.12400
C2841       C  0.31788062  0.82270140  0.48231912     0.04200
C2842       C  0.31077051  0.83536039  0.49167146    -0.24600
H2843       H  0.29437947  0.85405690  0.54206991     0.09300
H2844       H  0.29707457  0.85711635  0.51227459     0.12900
H2845       H  0.32198299  0.80885062  0.54030617     0.12900
H2846       H  0.33216953  0.79871455  0.51369834     0.12600
H2847       H  0.33172218  0.79996936  0.48362510     0.13200
H2848       H  0.30451214  0.84539975  0.48551719     0.15100
C2849       C  0.26657008  0.85222661  0.62832227    -0.04900
C2850       C  0.26755687  0.84866164  0.64522783    -0.04800
C2851       C  0.25871180  0.85786442  0.65666290    -0.23000
C2852       C  0.24852695  0.87072842  0.65142583     0.19200
C2853       C  0.24737155  0.87448958  0.63447265     0.16400
C2854       C  0.25650161  0.86528197  0.62301166    -0.18000
C2855       C  0.23695894  0.88726768  0.62931708    -0.19900
C2856       C  0.22769109  0.89609976  0.64082099    -0.12400
C2857       C  0.22875261  0.89239024  0.65769172     0.04200
C2858       C  0.23933376  0.87973965  0.66288501    -0.24600
H2859       H  0.27521778  0.83870108  0.64965515     0.09300
H2860       H  0.25972716  0.85481012  0.66960873     0.12900
H2861       H  0.25555347  0.86808192  0.61000082     0.12900
H2862       H  0.23587926  0.89034419  0.61638482     0.12600
H2863       H  0.21965466  0.90581137  0.63650824     0.13200
H2864       H  0.24026254  0.87672820  0.67585366     0.15100
C2865       C  0.27733664  0.92170476  0.77899346    -0.04900
C2866       C  0.28227637  0.92939677  0.76432010    -0.04800
C2867       C  0.27158439  0.93053512  0.75096711    -0.23000
C2868       C  0.25567200  0.92405953  0.75199550     0.19200
C2869       C  0.25026297  0.91670036  0.76679309     0.16400
C2870       C  0.26116996  0.91554506  0.78027061    -0.18000
C2871       C  0.23417361  0.91038837  0.76764623    -0.19900
C2872       C  0.22375670  0.91104820  0.75385597    -0.12400
C2873       C  0.22929253  0.91799915  0.73901418     0.04200
C2874       C  0.24522104  0.92463277  0.73829363    -0.24600
H2875       H  0.29462222  0.93427001  0.76298477     0.09300
H2876       H  0.27586625  0.93627840  0.73972985     0.12900
H2877       H  0.25720992  0.90964127  0.79154427     0.12900
H2878       H  0.22972808  0.90477396  0.77888023     0.12600
H2879       H  0.21147789  0.90590773  0.75472214     0.13200
H2880       H  0.24960035  0.93013434  0.72696532     0.15100
C2881       C  0.38055640  0.82380998  0.66872712    -0.04900
C2882       C  0.37750966  0.83898787  0.66103675    -0.04800
C2883       C  0.36632906  0.84018706  0.64799605    -0.23000
C2884       C  0.35791107  0.82623368  0.64240062     0.19200
C2885       C  0.36113843  0.81081148  0.64972553     0.16400
C2886       C  0.37247849  0.80968084  0.66281717    -0.18000
C2887       C  0.35260565  0.79689024  0.64412815    -0.19900
C2888       C  0.34052108  0.79835675  0.63188801    -0.12400
C2889       C  0.33684986  0.81374120  0.62493123     0.04200
C2890       C  0.34592523  0.82756961  0.62998187    -0.24600
H2891       H  0.38355126  0.85005808  0.66532101     0.09300
H2892       H  0.36402226  0.85210082  0.64250927     0.12900
H2893       H  0.37471903  0.79790409  0.66862630     0.12900
H2894       H  0.35496068  0.78494546  0.64951953     0.12600
H2895       H  0.33373830  0.78750789  0.62817802     0.13200
H2896       H  0.34321911  0.83951053  0.62472655     0.15100
C2897       C  0.38558819  0.85743382  0.74451572    -0.04900
C2898       C  0.39175974  0.87323270  0.74782393    -0.04800
C2899       C  0.38328951  0.88385770  0.75837343    -0.23000
C2900       C  0.36854689  0.87881871  0.76583057     0.19200
C2901       C  0.36232067  0.86292700  0.76254697     0.16400
C2902       C  0.37083995  0.85239585  0.75195629    -0.18000
C2903       C  0.34764775  0.85776141  0.76990901    -0.19900
C2904       C  0.33915645  0.86821781  0.78045010    -0.12400
C2905       C  0.34515611  0.88405575  0.78388692     0.04200
C2906       C  0.35991154  0.88932125  0.77650630    -0.24600
H2907       H  0.40313036  0.87737901  0.74224801     0.09300
H2908       H  0.38827762  0.89598145  0.76071816     0.12900
H2909       H  0.36597698  0.84022103  0.74955722     0.12900
H2910       H  0.34271716  0.84562095  0.76750930     0.12600
H2911       H  0.32781996  0.86385557  0.78593219     0.13200
H2912       H  0.36462199  0.90152838  0.77901481     0.15100
C2913       C  0.27290079  0.75432297  0.93170540    -0.04900
C2914       C  0.27430153  0.74164998  0.94337474    -0.04800
C2915       C  0.26166624  0.73014675  0.94531153    -0.23000
C2916       C  0.24746604  0.73099220  0.93547412     0.19200
C2917       C  0.24578889  0.74386039  0.92390365     0.16400
C2918       C  0.25846404  0.75549362  0.92216027    -0.18000
C2919       C  0.23161168  0.74466240  0.91402662    -0.19900
C2920       C  0.21945306  0.73254782  0.91521583    -0.12400
C2921       C  0.22124343  0.71940348  0.92629011     0.04200
C2922       C  0.23515442  0.71891352  0.93665942    -0.24600
H2923       H  0.28522804  0.74058635  0.95098857     0.09300
H2924       H  0.26313253  0.72042144  0.95430347     0.12900
H2925       H  0.25723622  0.76523246  0.91313897     0.12900
H2926       H  0.23008948  0.75445975  0.90512418     0.12600
H2927       H  0.20886846  0.73320235  0.90709209     0.13200
H2928       H  0.23664809  0.70887562  0.94530513     0.15100
C2929       C  0.32635202  0.79661779  0.04003265    -0.04900
C2930       C  0.33977930  0.78867085  0.03256964    -0.04800
C2931       C  0.34141704  0.78840242  0.01542561    -0.23000
C2932       C  0.32960609  0.79600467  0.00535243     0.19200
C2933       C  0.31643620  0.80463458  0.01271674     0.16400
C2934       C  0.31495238  0.80498712  0.02997992    -0.18000
C2935       C  0.30460719  0.81222216  0.00266921    -0.19900
C2936       C  0.30539180  0.81067866  0.98554817    -0.12400
C2937       C  0.31806117  0.80158935  0.97806174     0.04200
C2938       C  0.33038911  0.79459925  0.98808284    -0.24600
H2939       H  0.34879154  0.78220279  0.03998285     0.09300
H2940       H  0.35166667  0.78182093  0.01003751     0.12900
H2941       H  0.30455293  0.81119871  0.03553400     0.12900
H2942       H  0.29446545  0.81896272  0.00806510     0.12600
H2943       H  0.29575210  0.81623108  0.97817227     0.13200
H2944       H  0.34022367  0.78755010  0.98250901     0.15100
C2945       C  0.30790766  0.83450296  0.89706422    -0.04900
C2946       C  0.29244393  0.83856269  0.89035051    -0.04800
C2947       C  0.29073431  0.85187079  0.87961494    -0.23000
C2948       C  0.30448115  0.86135783  0.87531437     0.19200
C2949       C  0.32004924  0.85758488  0.88220951     0.16400
C2950       C  0.32166098  0.84423089  0.89307189    -0.18000
C2951       C  0.33381513  0.86700702  0.87782592    -0.19900
C2952       C  0.33227372  0.87973065  0.86637800    -0.12400
C2953       C  0.31694460  0.88331587  0.85909622     0.04200
C2954       C  0.30300338  0.87424376  0.86388342    -0.24600
H2955       H  0.28165407  0.83127704  0.89320973     0.09300
H2956       H  0.27870519  0.85456946  0.87446647     0.12900
H2957       H  0.33366731  0.84119980  0.89810100     0.12900
H2958       H  0.34584267  0.86431844  0.88298303     0.12600
H2959       H  0.34322386  0.88647473  0.86287079     0.13200
H2960       H  0.29113029  0.87681644  0.85830737     0.15100
C2961       C  0.41717670  0.78433417  0.74988276    -0.04900
C2962       C  0.42590752  0.78833496  0.76431921    -0.04800
C2963       C  0.42814268  0.77676663  0.77678420    -0.23000
C2964       C  0.42163176  0.76093242  0.77513350     0.19200
C2965       C  0.41290325  0.75665989  0.76065627     0.16400
C2966       C  0.41074585  0.76838296  0.74808131    -0.18000
C2967       C  0.40636351  0.74078444  0.75911999    -0.19900
C2968       C  0.40820695  0.72938373  0.77189431    -0.12400
C2969       C  0.41666690  0.73360667  0.78642768     0.04200
C2970       C  0.42351666  0.74939819  0.78785222    -0.24600
H2971       H  0.43103355  0.80049994  0.76603252     0.09300
H2972       H  0.43487332  0.78025641  0.78777943     0.12900
H2973       H  0.40399481  0.76514219  0.73701753     0.12900
H2974       H  0.39966240  0.73723944  0.74812760     0.12600
H2975       H  0.40281381  0.71729715  0.77047475     0.13200
H2976       H  0.43006397  0.75283060  0.79898230     0.15100
C2977       C  0.38776906  0.65502758  0.82488073    -0.04900
C2978       C  0.38176354  0.65036041  0.80932940    -0.04800
C2979       C  0.36958396  0.63833497  0.80782980    -0.23000
C2980       C  0.36313155  0.63072082  0.82186652     0.19200
C2981       C  0.36957820  0.63470308  0.83754601     0.16400
C2982       C  0.38190657  0.64681971  0.83896837    -0.18000
C2983       C  0.36306970  0.62697898  0.85154645    -0.19900
C2984       C  0.34969873  0.61616174  0.85009135    -0.12400
C2985       C  0.34266821  0.61279180  0.83461101     0.04200
C2986       C  0.34985064  0.61973306  0.82049486    -0.24600
H2987       H  0.38606579  0.65643966  0.79828967     0.09300
H2988       H  0.36484853  0.63536130  0.79571159     0.12900
H2989       H  0.38647782  0.65025700  0.85103123     0.12900
H2990       H  0.36793955  0.62972739  0.86366470     0.12600
H2991       H  0.34449911  0.61087420  0.86115021     0.13200
H2992       H  0.34464809  0.61716701  0.80846594     0.15100
C2993       C  0.38989990  0.72827154  0.86363180    -0.04900
C2994       C  0.39551778  0.73082354  0.87981936    -0.04800
C2995       C  0.38618717  0.74004798  0.89096509    -0.23000
C2996       C  0.37102092  0.74683489  0.88614979     0.19200
C2997       C  0.36526260  0.74426212  0.86991175     0.16400
C2998       C  0.37471884  0.73507540  0.85879315    -0.18000
C2999       C  0.35007637  0.75084837  0.86504655    -0.19900
C3000       C  0.34058011  0.75978376  0.87617469    -0.12400
C3001       C  0.34608264  0.76244050  0.89239190     0.04200
C3002       C  0.36144325  0.75601585  0.89727971    -0.24600
H3003       H  0.40715542  0.72569931  0.88386894     0.09300
H3004       H  0.39081151  0.74182807  0.90335851     0.12900
H3005       H  0.37019681  0.73317312  0.84637074     0.12900
H3006       H  0.34547672  0.74900069  0.85265004     0.12600
H3007       H  0.32884140  0.76461813  0.87205055     0.13200
H3008       H  0.36580535  0.75792966  0.90975233     0.15100
C3009       C  0.02781684  0.67565815  0.80611987    -0.04900
C3010       C  0.02014672  0.68886646  0.81418290    -0.04800
C3011       C  0.00301554  0.68989178  0.81508013    -0.23000
C3012       C  0.99313005  0.67774540  0.80789513     0.19200
C3013       C  0.00059794  0.66409722  0.80018447     0.16400
C3014       C  0.01793305  0.66307684  0.79941683    -0.18000
C3015       C  0.99055375  0.65199779  0.79299659    -0.19900
C3016       C  0.97334666  0.65360588  0.79315145    -0.12400
C3017       C  0.96586139  0.66734792  0.80047687     0.04200
C3018       C  0.97589863  0.67927185  0.80798882    -0.24600
H3019       H  0.02741381  0.69871099  0.81946911     0.09300
H3020       H  0.99749282  0.70040045  0.82109414     0.12900
H3021       H  0.02367163  0.65286852  0.79308852     0.12900
H3022       H  0.99600367  0.64143093  0.78702238     0.12600
H3023       H  0.96590802  0.64426794  0.78722177     0.13200
H3024       H  0.97031560  0.68993746  0.81367515     0.15100
C3025       C  0.84854833  0.60315120  0.73309971    -0.04900
C3026       C  0.86461219  0.59726398  0.73573640    -0.04800
C3027       C  0.87575240  0.60606716  0.74552040    -0.23000
C3028       C  0.87105460  0.62098223  0.75274687     0.19200
C3029       C  0.85488682  0.62695509  0.75024029     0.16400
C3030       C  0.84373411  0.61797489  0.74054323    -0.18000
C3031       C  0.85019034  0.64192236  0.75730576    -0.19900
C3032       C  0.86147370  0.65102377  0.76657263    -0.12400
C3033       C  0.87762785  0.64528532  0.76908232     0.04200
C3034       C  0.88229830  0.63013188  0.76223863    -0.24600
H3035       H  0.86857858  0.58583482  0.73021806     0.09300
H3036       H  0.88807900  0.60128006  0.74731606     0.12900
H3037       H  0.83137422  0.62265419  0.73862051     0.12900
H3038       H  0.83784892  0.64668186  0.75551696     0.12600
H3039       H  0.85755560  0.66264447  0.77171806     0.13200
H3040       H  0.89473545  0.62561518  0.76402662     0.15100
C3041       C  0.81409328  0.68362175  0.97076989    -0.04900
C3042       C  0.82083147  0.69711093  0.97924942    -0.04800
C3043       C  0.82201938  0.69704450  0.99642158    -0.23000
C3044       C  0.81640037  0.68351886  0.00549931     0.19200
C3045       C  0.81033616  0.66955043  0.99711260     0.16400
C3046       C  0.80932572  0.66963777  0.97980074    -0.18000
C3047       C  0.80470578  0.65603966  0.00623506    -0.19900
C3048       C  0.80423081  0.65671867  0.02345062    -0.12400
C3049       C  0.80947867  0.67087226  0.03190107     0.04200
C3050       C  0.81605933  0.68403771  0.02280375    -0.24600
H3051       H  0.82468026  0.70799749  0.97263376     0.09300
H3052       H  0.82681784  0.70781718  0.00262873     0.12900
H3053       H  0.80415017  0.65912383  0.97343907     0.12900
H3054       H  0.80013445  0.64515964  0.00004574     0.12600
H3055       H  0.79922396  0.64635343  0.03013017     0.13200
H3056       H  0.82022719  0.69500238  0.02913458     0.15100
C3057       C  0.84355551  0.69120805  0.88575805    -0.04900
C3058       C  0.84719709  0.70612593  0.87782958    -0.04800
C3059       C  0.85909697  0.70684767  0.86544785    -0.23000
C3060       C  0.86761496  0.69265234  0.86072545     0.19200
C3061       C  0.86440867  0.67767014  0.86892653     0.16400
C3062       C  0.85240813  0.67703130  0.88137170    -0.18000
C3063       C  0.87295808  0.66348610  0.86423400    -0.19900
C3064       C  0.88409616  0.66398403  0.85115087    -0.12400
C3065       C  0.88691720  0.67865938  0.84246557     0.04200
C3066       C  0.87888283  0.69307472  0.84760223    -0.24600
H3067       H  0.84055395  0.71722267  0.88093511     0.09300
H3068       H  0.86140187  0.71845333  0.85934518     0.12900
H3069       H  0.84971316  0.66544299  0.88736095     0.12900
H3070       H  0.87073970  0.65190689  0.87041924     0.12600
H3071       H  0.89010822  0.65270487  0.84747959     0.13200
H3072       H  0.88093072  0.70447841  0.84102999     0.15100
C3073       C  0.77418400  0.57485703  0.73921999    -0.04900
C3074       C  0.75832522  0.58103380  0.73604782    -0.04800
C3075       C  0.74658320  0.58172667  0.74859734    -0.23000
C3076       C  0.75057522  0.57635772  0.76453365     0.19200
C3077       C  0.76650955  0.57014256  0.76779471     0.16400
C3078       C  0.77813621  0.56934355  0.75513093    -0.18000
C3079       C  0.77064474  0.56496745  0.78372238    -0.19900
C3080       C  0.75910403  0.56595964  0.79636840    -0.12400
C3081       C  0.74319593  0.57204217  0.79329735     0.04200
C3082       C  0.73898283  0.57720000  0.77729678    -0.24600
H3083       H  0.75503141  0.58541779  0.72388980     0.09300
H3084       H  0.73444570  0.58657017  0.74587639     0.12900
H3085       H  0.79037306  0.56467811  0.75776155     0.12900
H3086       H  0.78282858  0.56022252  0.78642077     0.12600
H3087       H  0.76264089  0.56193854  0.80858404     0.13200
H3088       H  0.72677660  0.58201548  0.77481388     0.15100
C3089       C  0.73620255  0.60788677  0.86694415    -0.04900
C3090       C  0.74322624  0.60203540  0.88165144    -0.04800
C3091       C  0.75315865  0.61229550  0.89135673    -0.23000
C3092       C  0.75615458  0.62858962  0.88653394     0.19200
C3093       C  0.74897134  0.63456712  0.87184036     0.16400
C3094       C  0.73909288  0.62422450  0.86219633    -0.18000
C3095       C  0.75187006  0.65078173  0.86690574    -0.19900
C3096       C  0.76190536  0.66100768  0.87636265    -0.12400
C3097       C  0.76922486  0.65526090  0.89097098     0.04200
C3098       C  0.76624185  0.63899716  0.89604914    -0.24600
H3099       H  0.74123145  0.58946531  0.88552433     0.09300
H3100       H  0.75855816  0.60746872  0.90256576     0.12900
H3101       H  0.73371938  0.62890743  0.85090161     0.12900
H3102       H  0.74643358  0.65554464  0.85568268     0.12600
H3103       H  0.76395459  0.67347468  0.87218902     0.13200
H3104       H  0.77182601  0.63442679  0.90728270     0.15100
C3105       C  0.76630581  0.72993969  0.91986409    -0.04900
C3106       C  0.76962305  0.74457444  0.91130762    -0.04800
C3107       C  0.75789883  0.75713124  0.91060618    -0.23000
C3108       C  0.74260428  0.75523040  0.91835938     0.19200
C3109       C  0.73921801  0.74061686  0.92713015     0.16400
C3110       C  0.75110281  0.72813598  0.92790806    -0.18000
C3111       C  0.72388183  0.73860121  0.93473570    -0.19900
C3112       C  0.71189764  0.75082820  0.93344623    -0.12400
C3113       C  0.71506355  0.76537050  0.92465616     0.04200
C3114       C  0.73054732  0.76756157  0.91726891    -0.24600
H3115       H  0.78123622  0.74625281  0.90499640     0.09300
H3116       H  0.76071534  0.76823770  0.90382092     0.12900
H3117       H  0.74837222  0.71688948  0.93450966     0.12900
H3118       H  0.72107644  0.72748418  0.94151254     0.12600
H3119       H  0.70008232  0.74885374  0.93928624     0.13200
H3120       H  0.73310249  0.77869493  0.91041360     0.15100
C3121       C  0.67810159  0.81512778  0.03315425    -0.04900
C3122       C  0.69071624  0.82406110  0.02539020    -0.04800
C3123       C  0.69095343  0.82578672  0.00825497    -0.23000
C3124       C  0.67864253  0.81849312  0.99853918     0.19200
C3125       C  0.66552701  0.81008258  0.00626460     0.16400
C3126       C  0.66526855  0.80856771  0.02349582    -0.18000
C3127       C  0.65323853  0.80273400  0.99658981    -0.19900
C3128       C  0.65427977  0.80309538  0.97942953    -0.12400
C3129       C  0.66761676  0.81081305  0.97158032     0.04200
C3130       C  0.67957572  0.81886701  0.98124902    -0.24600
H3131       H  0.70071553  0.82928597  0.03253193     0.09300
H3132       H  0.70105581  0.83237173  0.00257625     0.12900
H3133       H  0.65546690  0.80163937  0.02930530     0.12900
H3134       H  0.64306905  0.79627345  0.00229397     0.12600
H3135       H  0.64492703  0.79677767  0.97230446     0.13200
H3136       H  0.68992440  0.82487479  0.97536100     0.15100
C3137       C  0.53267780  0.68104997  0.82913170    -0.04900
C3138       C  0.52499190  0.67307686  0.81580462    -0.04800
C3139       C  0.50777976  0.67254921  0.81450191    -0.23000
C3140       C  0.49789554  0.68000789  0.82650184     0.19200
C3141       C  0.50548387  0.68737039  0.84034249     0.16400
C3142       C  0.52277523  0.68780590  0.84159359    -0.18000
C3143       C  0.49566815  0.69472512  0.85242379    -0.19900
C3144       C  0.47856793  0.69544911  0.85049004    -0.12400
C3145       C  0.47088255  0.68886494  0.83643241     0.04200
C3146       C  0.48063129  0.68076468  0.82463541    -0.24600
H3147       H  0.53229876  0.66773486  0.80605260     0.09300
H3148       H  0.50221870  0.66672514  0.80386030     0.12900
H3149       H  0.52850722  0.69394925  0.85197025     0.12900
H3150       H  0.50125108  0.70031921  0.86317791     0.12600
H3151       H  0.47138858  0.70165620  0.85981402     0.13200
H3152       H  0.47487498  0.67554284  0.81377696     0.15100
C3153       C  0.61770919  0.64884769  0.83150169    -0.04900
C3154       C  0.61891172  0.64029768  0.84650461    -0.04800
C3155       C  0.63060747  0.62784114  0.84865499    -0.23000
C3156       C  0.64139764  0.62371031  0.83586102     0.19200
C3157       C  0.64010159  0.63199926  0.82061878     0.16400
C3158       C  0.62825119  0.64443463  0.81851469    -0.18000
C3159       C  0.65093389  0.62796849  0.80784523    -0.19900
C3160       C  0.66316699  0.61612372  0.81024882    -0.12400
C3161       C  0.66481226  0.60799817  0.82545095     0.04200
C3162       C  0.65368965  0.61171843  0.83816525    -0.24600
H3163       H  0.61098224  0.64344268  0.85671952     0.09300
H3164       H  0.63138969  0.62162878  0.86042487     0.12900
H3165       H  0.62750883  0.65092990  0.80689009     0.12900
H3166       H  0.65013001  0.63417517  0.79607274     0.12600
H3167       H  0.67156226  0.61353902  0.80024692     0.13200
H3168       H  0.65484340  0.60559970  0.84996032     0.15100
C3169       C  0.60936574  0.72636634  0.86158180    -0.04900
C3170       C  0.60487153  0.72730601  0.87824998    -0.04800
C3171       C  0.61237448  0.73876651  0.88873844    -0.23000
C3172       C  0.62447362  0.74952394  0.88272086     0.19200
C3173       C  0.62893238  0.74873875  0.86593346     0.16400
C3174       C  0.62140851  0.73719363  0.85553251    -0.18000
C3175       C  0.64099831  0.75939350  0.85981286    -0.19900
C3176       C  0.64897650  0.77039323  0.87030312    -0.12400
C3177       C  0.64496399  0.77109573  0.88709816     0.04200
C3178       C  0.63242739  0.76082205  0.89320289    -0.24600
H3179       H  0.59560008  0.71912169  0.88319804     0.09300
H3180       H  0.60877743  0.73915470  0.90155895     0.12900
H3181       H  0.62492353  0.73667858  0.84268344     0.12900
H3182       H  0.64448549  0.75902130  0.84695830     0.12600
H3183       H  0.65850471  0.77823553  0.86528019     0.13200
H3184       H  0.62926685  0.76122721  0.90614518     0.15100
C3185       C  0.68398100  0.88701417  0.84298984    -0.04900
C3186       C  0.69926281  0.87936904  0.84582149    -0.04800
C3187       C  0.70112934  0.86783473  0.85845037    -0.23000
C3188       C  0.68773185  0.86369725  0.86849681     0.19200
C3189       C  0.67248557  0.87178834  0.86617997     0.16400
C3190       C  0.67071533  0.88341362  0.85349501    -0.18000
C3191       C  0.65908854  0.86768913  0.87621836    -0.19900
C3192       C  0.66053698  0.85518130  0.88791661    -0.12400
C3193       C  0.67542209  0.84655437  0.88989525     0.04200
C3194       C  0.68914016  0.85119794  0.88039610    -0.24600
H3195       H  0.70969212  0.88194309  0.83794511     0.09300
H3196       H  0.71293770  0.86184123  0.86007675     0.12900
H3197       H  0.65888037  0.88925949  0.85149218     0.12900
H3198       H  0.64733992  0.87382802  0.87470531     0.12600
H3199       H  0.64980009  0.85192609  0.89509959     0.13200
H3200       H  0.70069725  0.84467220  0.88178845     0.15100
C3201       C  0.58334563  0.72427931  0.78375315    -0.04900
C3202       C  0.59189792  0.72081923  0.76913537    -0.04800
C3203       C  0.59160420  0.73192043  0.75592373    -0.23000
C3204       C  0.58282945  0.74673850  0.75712897     0.19200
C3205       C  0.57396158  0.75013824  0.77167500     0.16400
C3206       C  0.57421117  0.73891046  0.78478632    -0.18000
C3207       C  0.56522243  0.76488867  0.77305103    -0.19900
C3208       C  0.56556482  0.77639604  0.76033273    -0.12400
C3209       C  0.57458452  0.77341701  0.74589710     0.04200
C3210       C  0.58302203  0.75837520  0.74425639    -0.24600
H3211       H  0.59897541  0.70961342  0.76798483     0.09300
H3212       H  0.59844488  0.72903131  0.74487224     0.12900
H3213       H  0.56750859  0.74174659  0.79594683     0.12900
H3214       H  0.55831884  0.76766035  0.78409753     0.12600
H3215       H  0.55889724  0.78779650  0.76192533     0.13200
H3216       H  0.58999967  0.75589011  0.73318555     0.15100
C3217       C  0.52493325  0.81731141  0.69697264    -0.04900
C3218       C  0.51672446  0.80403300  0.68952798    -0.04800
C3219       C  0.49954651  0.80385157  0.68829536    -0.23000
C3220       C  0.49026128  0.81696197  0.69447773     0.19200
C3221       C  0.49843533  0.83077488  0.70118904     0.16400
C3222       C  0.51571179  0.83089268  0.70234284    -0.18000
C3223       C  0.48915764  0.84394264  0.70725259    -0.19900
C3224       C  0.47196273  0.84309229  0.70742840    -0.12400
C3225       C  0.46371947  0.82906860  0.70155213     0.04200
C3226       C  0.47296316  0.81620366  0.69467174    -0.24600
H3227       H  0.52354941  0.79347562  0.68518644     0.09300
H3228       H  0.49350815  0.79322791  0.68297079     0.12900
H3229       H  0.52190775  0.84126280  0.70799918     0.12900
H3230       H  0.49520146  0.85468237  0.71233189     0.12600
H3231       H  0.46513580  0.85318655  0.71275727     0.13200
H3232       H  0.46675050  0.80534589  0.69005113     0.15100
C3233       C  0.64712539  0.88196415  0.77004776    -0.04900
C3234       C  0.65356195  0.86616186  0.76741489    -0.04800
C3235       C  0.64475565  0.85452855  0.75837731    -0.23000
C3236       C  0.62935193  0.85847448  0.75166823     0.19200
C3237       C  0.62276817  0.87437246  0.75402426     0.16400
C3238       C  0.63168698  0.88603835  0.76324498    -0.18000
C3239       C  0.60735885  0.87824354  0.74716626    -0.19900
C3240       C  0.59852869  0.86644750  0.73820827    -0.12400
C3241       C  0.60494443  0.85057281  0.73593173     0.04200
C3242       C  0.62042854  0.84672495  0.74268791    -0.24600
H3243       H  0.66542097  0.86270351  0.77248541     0.09300
H3244       H  0.64999518  0.84241413  0.75666674     0.12900
H3245       H  0.62665305  0.89822370  0.76508976     0.12900
H3246       H  0.60210358  0.89036150  0.74878439     0.12600
H3247       H  0.58663205  0.86973257  0.73311428     0.13200
H3248       H  0.62554008  0.83454346  0.74101973     0.15100
C3249       C  0.91205502  0.76516899  0.72133370    -0.04900
C3250       C  0.90790368  0.77028778  0.73730486    -0.04800
C3251       C  0.90761639  0.75901861  0.75033272    -0.23000
C3252       C  0.91143237  0.74243557  0.74758262     0.19200
C3253       C  0.91560533  0.73723150  0.73153304     0.16400
C3254       C  0.91590677  0.74858305  0.71858273    -0.18000
C3255       C  0.91938698  0.72072700  0.72863543    -0.19900
C3256       C  0.91902909  0.70941800  0.74149787    -0.12400
C3257       C  0.91488038  0.71435058  0.75753728     0.04200
C3258       C  0.91110112  0.73094633  0.76052640    -0.24600
H3259       H  0.90489230  0.78300881  0.73972740     0.09300
H3260       H  0.90438352  0.76326375  0.76253455     0.12900
H3261       H  0.91909369  0.74445171  0.70631726     0.12900
H3262       H  0.92259137  0.71654249  0.71640007     0.12600
H3263       H  0.92195383  0.69672365  0.73883235     0.13200
H3264       H  0.90785540  0.73488837  0.77283324     0.15100
C3265       C  0.96572739  0.80970182  0.67755602    -0.04900
C3266       C  0.97294236  0.81928374  0.69005465    -0.04800
C3267       C  0.99005461  0.82107657  0.69109115    -0.23000
C3268       C  0.00031571  0.81319012  0.67973059     0.19200
C3269       C  0.99318313  0.80382228  0.66689394     0.16400
C3270       C  0.97595753  0.80223687  0.66581325    -0.18000
C3271       C  0.00341760  0.79581938  0.65560739    -0.19900
C3272       C  0.02053352  0.79672552  0.65724747    -0.12400
C3273       C  0.02779232  0.80567760  0.67017717     0.04200
C3274       C  0.01756917  0.81412491  0.68125554    -0.24600
H3275       H  0.96534519  0.82519647  0.69924008     0.09300
H3276       H  0.99526830  0.82834359  0.70098851     0.12900
H3277       H  0.97056477  0.79475649  0.65616553     0.12900
H3278       H  0.99818941  0.78858750  0.64569154     0.12600
H3279       H  0.02810379  0.79007191  0.64856188     0.13200
H3280       H  0.02300163  0.82103401  0.69130107     0.15100
C3281       C  0.82275312  0.67977617  0.53142398    -0.04900
C3282       C  0.80827683  0.67347862  0.52424715    -0.04800
C3283       C  0.80642491  0.67297592  0.50715795    -0.23000
C3284       C  0.81900283  0.67882196  0.49692816     0.19200
C3285       C  0.83405662  0.68410479  0.50396686     0.16400
C3286       C  0.83590042  0.68440733  0.52117438    -0.18000
C3287       C  0.84666239  0.68986173  0.49370339    -0.19900
C3288       C  0.84402088  0.69132516  0.47675239    -0.12400
C3289       C  0.82876721  0.68698387  0.46974517     0.04200
C3290       C  0.81647867  0.68022404  0.47987439    -0.24600
H3291       H  0.79802616  0.66966656  0.53185302     0.09300
H3292       H  0.79488124  0.66868331  0.50197571     0.12900
H3293       H  0.84717498  0.68916251  0.52655247     0.12900
H3294       H  0.85834589  0.69380574  0.49884771     0.12600
H3295       H  0.85375029  0.69639351  0.46919893     0.13200
H3296       H  0.80471031  0.67668388  0.47460827     0.15100
C3297       C  0.82175338  0.65058999  0.61533924    -0.04900
C3298       C  0.83660218  0.64227617  0.61851464    -0.04800
C3299       C  0.83727023  0.62966258  0.63014872    -0.23000
C3300       C  0.82308789  0.62512218  0.63883091     0.19200
C3301       C  0.80796644  0.63304923  0.63539242     0.16400
C3302       C  0.80738178  0.64570390  0.62365067    -0.18000
C3303       C  0.79377425  0.62845041  0.64404677    -0.19900
C3304       C  0.79465188  0.61645457  0.65631925    -0.12400
C3305       C  0.80972311  0.60883940  0.66015725     0.04200
C3306       C  0.82386848  0.61306653  0.65115848    -0.24600
H3307       H  0.84783070  0.64576695  0.61224648     0.09300
H3308       H  0.84894538  0.62366881  0.63256643     0.12900
H3309       H  0.79584277  0.65198176  0.62127381     0.12900
H3310       H  0.78206361  0.63433677  0.64153763     0.12600
H3311       H  0.78357474  0.61339609  0.66306348     0.13200
H3312       H  0.83555457  0.60725529  0.65398273     0.15100
C3313       C  0.88218161  0.76812935  0.64762694    -0.04900
C3314       C  0.86545421  0.76660606  0.65185318    -0.04800
C3315       C  0.85508802  0.75596246  0.64326019    -0.23000
C3316       C  0.86119567  0.74660359  0.63019964     0.19200
C3317       C  0.87791781  0.74808712  0.62560755     0.16400
C3318       C  0.88835064  0.75886166  0.63436903    -0.18000
C3319       C  0.88386227  0.73866432  0.61242152    -0.19900
C3320       C  0.87335537  0.72786208  0.60396330    -0.12400
C3321       C  0.85674803  0.72626023  0.60858105     0.04200
C3322       C  0.85079519  0.73574306  0.62172543    -0.24600
H3323       H  0.86035622  0.77353794  0.66200146     0.09300
H3324       H  0.84229199  0.75498040  0.64691212     0.12900
H3325       H  0.90122064  0.75989569  0.63099860     0.12900
H3326       H  0.89662654  0.73962232  0.60867300     0.12600
H3327       H  0.87823209  0.72072709  0.59385014     0.13200
H3328       H  0.83800279  0.73470427  0.62539556     0.15100
C3329       C  0.71363885  0.92325438  0.76033018    -0.04900
C3330       C  0.70847341  0.92959994  0.74507630    -0.04800
C3331       C  0.71915814  0.92989807  0.73169178    -0.23000
C3332       C  0.73519556  0.92377873  0.73328816     0.19200
C3333       C  0.74068563  0.91767615  0.74864822     0.16400
C3334       C  0.72990507  0.91758335  0.76213947    -0.18000
C3335       C  0.75671808  0.91139981  0.75010165    -0.19900
C3336       C  0.76709886  0.91094446  0.73639835    -0.12400
C3337       C  0.76166793  0.91690336  0.72107654     0.04200
C3338       C  0.74571539  0.92342120  0.71966986    -0.24600
H3339       H  0.69601296  0.93406031  0.74337280     0.09300
H3340       H  0.71477380  0.93463822  0.72001103     0.12900
H3341       H  0.73399632  0.91262614  0.77383960     0.12900
H3342       H  0.76115096  0.90666258  0.76176279     0.12600
H3343       H  0.77936720  0.90589099  0.73777907     0.13200
H3344       H  0.74136750  0.92799573  0.70790185     0.15100
C3345       C  0.83780684  0.88511848  0.68288143    -0.04900
C3346       C  0.84121384  0.87839454  0.69846963    -0.04800
C3347       C  0.85383520  0.86696014  0.70058964    -0.23000
C3348       C  0.86334180  0.86196379  0.68715571     0.19200
C3349       C  0.86050280  0.86902932  0.67150170     0.16400
C3350       C  0.84776055  0.88061375  0.66945158    -0.18000
C3351       C  0.87012253  0.86396270  0.65811048    -0.19900
C3352       C  0.88190559  0.85154493  0.66007750    -0.12400
C3353       C  0.88430369  0.84398587  0.67546717     0.04200
C3354       C  0.87523448  0.84959224  0.68904789    -0.24600
H3355       H  0.83380774  0.88165699  0.70903487     0.09300
H3356       H  0.85589381  0.86172752  0.71268600     0.12900
H3357       H  0.84528542  0.88570652  0.65736865     0.12900
H3358       H  0.86822761  0.86927828  0.64602709     0.12600
H3359       H  0.88875114  0.84747510  0.64941623     0.13200
H3360       H  0.87698599  0.84391483  0.70099655     0.15100
C3361       C  0.73093727  0.76429535  0.59040628    -0.04900
C3362       C  0.72725767  0.74852048  0.59638301    -0.04800
C3363       C  0.73896378  0.73594829  0.59556320    -0.23000
C3364       C  0.75451951  0.73893406  0.58869003     0.19200
C3365       C  0.75819269  0.75469589  0.58238101     0.16400
C3366       C  0.74642495  0.76724560  0.58331278    -0.18000
C3367       C  0.77364475  0.75771158  0.57537234    -0.19900
C3368       C  0.78548554  0.74531344  0.57484887    -0.12400
C3369       C  0.78214268  0.72968338  0.58139199     0.04200
C3370       C  0.76653524  0.72652349  0.58818785    -0.24600
H3371       H  0.71538027  0.74594224  0.60185045     0.09300
H3372       H  0.73589254  0.72393305  0.60040481     0.12900
H3373       H  0.74937064  0.77933851  0.57856167     0.12900
H3374       H  0.77663873  0.76971101  0.57043589     0.12600
H3375       H  0.79741030  0.74807220  0.56957474     0.13200
H3376       H  0.76380235  0.71450011  0.59322539     0.15100
C3377       C  0.69212320  0.82646240  0.48086306    -0.04900
C3378       C  0.69789831  0.83999970  0.48995256    -0.04800
C3379       C  0.69708820  0.84003481  0.50715091    -0.23000
C3380       C  0.69054097  0.82649700  0.51558070     0.19200
C3381       C  0.68411092  0.81311567  0.50651711     0.16400
C3382       C  0.68484318  0.81323057  0.48925563    -0.18000
C3383       C  0.67763759  0.79953044  0.51487759    -0.19900
C3384       C  0.67818328  0.79885319  0.53203575    -0.12400
C3385       C  0.68508622  0.81179442  0.54119586     0.04200
C3386       C  0.69088065  0.82581234  0.53287935    -0.24600
H3387       H  0.70353982  0.85036132  0.48379084     0.09300
H3388       H  0.70201681  0.85044061  0.51386468     0.12900
H3389       H  0.68031800  0.80272588  0.48240280     0.12900
H3390       H  0.67259134  0.78920005  0.50813308     0.12600
H3391       H  0.67358838  0.78794992  0.53812894     0.13200
H3392       H  0.69627610  0.83585853  0.53979748     0.15100
C3393       C  0.65007897  0.79894830  0.62177928    -0.04900
C3394       C  0.64721666  0.78422995  0.63036649    -0.04800
C3395       C  0.63481466  0.78325978  0.64220798    -0.23000
C3396       C  0.62510768  0.79702738  0.64574805     0.19200
C3397       C  0.62730564  0.81163564  0.63660037     0.16400
C3398       C  0.63969063  0.81246706  0.62458565    -0.18000
C3399       C  0.61759942  0.82540569  0.64017223    -0.19900
C3400       C  0.60649339  0.82500456  0.65328202    -0.12400
C3401       C  0.60483274  0.81080648  0.66299447     0.04200
C3402       C  0.61380052  0.79666367  0.65878614    -0.24600
H3403       H  0.65497911  0.77360855  0.62837304     0.09300
H3404       H  0.63322162  0.77192425  0.64900982     0.12900
H3405       H  0.64173186  0.82386460  0.61800141     0.12900
H3406       H  0.61901176  0.83666701  0.63320983     0.12600
H3407       H  0.59962297  0.83602072  0.65617751     0.13200
H3408       H  0.61254601  0.78560295  0.66610507     0.15100
C3409       C  0.72279122  0.83930948  0.62392501    -0.04900
C3410       C  0.72263129  0.83789715  0.64116496    -0.04800
C3411       C  0.73196671  0.84855150  0.65094588    -0.23000
C3412       C  0.74178173  0.86071511  0.64366128     0.19200
C3413       C  0.74200185  0.86229755  0.62634435     0.16400
C3414       C  0.73242782  0.85166647  0.61659944    -0.18000
C3415       C  0.75196181  0.87435858  0.61907068    -0.19900
C3416       C  0.76175208  0.88464629  0.62883814    -0.12400
C3417       C  0.76169835  0.88313153  0.64606419     0.04200
C3418       C  0.75153800  0.87117828  0.65339007    -0.24600
H3419       H  0.71529629  0.82850822  0.64710834     0.09300
H3420       H  0.73164134  0.84716338  0.66420549     0.12900
H3421       H  0.73270783  0.85283755  0.60331281     0.12900
H3422       H  0.75228992  0.87574839  0.60581254     0.12600
H3423       H  0.76942298  0.89376192  0.62289770     0.13200
H3424       H  0.75135677  0.86987004  0.66666678     0.15100
C3425       C  0.33713050  0.02688823  0.82000705    -0.04900
C3426       C  0.35140946  0.01782394  0.81640217    -0.04800
C3427       C  0.35154468  0.00072142  0.81800701    -0.23000
C3428       C  0.33736756  0.99234520  0.82317167     0.19200
C3429       C  0.32316091  0.00139038  0.82749158     0.16400
C3430       C  0.32315314  0.01857974  0.82595440    -0.18000
C3431       C  0.30897528  0.99304303  0.83264678    -0.19900
C3432       C  0.30857290  0.97589207  0.83272088    -0.12400
C3433       C  0.32235403  0.96674419  0.82768852     0.04200
C3434       C  0.33691290  0.97508238  0.82339110    -0.24600
H3435       H  0.36235357  0.02391419  0.81185159     0.09300
H3436       H  0.36258367  0.99401358  0.81473044     0.12900
H3437       H  0.31206529  0.02541144  0.82881509     0.12900
H3438       H  0.29800049  0.99976887  0.83609716     0.12600
H3439       H  0.29721119  0.96979418  0.83610215     0.13200
H3440       H  0.34763103  0.96817956  0.81949755     0.15100
C3441       C  0.39281312  0.14694557  0.73551955    -0.04900
C3442       C  0.37576986  0.14986562  0.73632851    -0.04800
C3443       C  0.36560735  0.13991260  0.74580338    -0.23000
C3444       C  0.37228433  0.12688546  0.75481802     0.19200
C3445       C  0.38935798  0.12356063  0.75404266     0.16400
C3446       C  0.39957324  0.13358974  0.74426346    -0.18000
C3447       C  0.39583235  0.11044612  0.76327822    -0.19900
C3448       C  0.38551106  0.10099467  0.77338764    -0.12400
C3449       C  0.36858856  0.10452585  0.77437820     0.04200
C3450       C  0.36208839  0.11735599  0.76483213    -0.24600
H3451       H  0.37022474  0.15997170  0.72964496     0.09300
H3452       H  0.35253112  0.14255922  0.74625406     0.12900
H3453       H  0.41270391  0.13124114  0.74373952     0.12900
H3454       H  0.40887054  0.10764305  0.76284880     0.12600
H3455       H  0.39078662  0.09110713  0.78059101     0.13200
H3456       H  0.34903817  0.12014594  0.76536308     0.15100
C3457       C  0.31783523  0.18926507  0.97089781    -0.04900
C3458       C  0.30423360  0.18077458  0.97742305    -0.04800
C3459       C  0.30233445  0.17899255  0.99442183    -0.23000
C3460       C  0.31396316  0.18573971  0.00527682     0.19200
C3461       C  0.32802171  0.19374959  0.99886845     0.16400
C3462       C  0.32993402  0.19536600  0.98172913    -0.18000
C3463       C  0.33961976  0.20053661  0.00973570    -0.19900
C3464       C  0.33702681  0.19994376  0.02673929    -0.12400
C3465       C  0.32281973  0.19250126  0.03325852     0.04200
C3466       C  0.31148344  0.18510324  0.02240335    -0.24600
H3467       H  0.29475106  0.17590412  0.96938107     0.09300
H3468       H  0.29152295  0.17273359  0.99908172     0.12900
H3469       H  0.34046801  0.20195395  0.97687865     0.12900
H3470       H  0.35050058  0.20667634  0.00507754     0.12600
H3471       H  0.34597160  0.20572085  0.03478790     0.13200
H3472       H  0.30047134  0.17932796  0.02723178     0.15100
C3473       C  0.31683229  0.15997088  0.88669387    -0.04900
C3474       C  0.30277047  0.15671413  0.87707139    -0.04800
C3475       C  0.30286065  0.14425124  0.86525864    -0.23000
C3476       C  0.31703663  0.13476251  0.86277915     0.19200
C3477       C  0.33120603  0.13771537  0.87250898     0.16400
C3478       C  0.33101622  0.15027480  0.88443140    -0.18000
C3479       C  0.34538737  0.12821234  0.86994479    -0.19900
C3480       C  0.34559242  0.11607365  0.85773910    -0.12400
C3481       C  0.33162494  0.11316009  0.84786342     0.04200
C3482       C  0.31732608  0.12253441  0.85056717    -0.24600
H3483       H  0.29170134  0.16398945  0.87850237     0.09300
H3484       H  0.29188340  0.14216265  0.85792629     0.12900
H3485       H  0.34196756  0.15267254  0.89171536     0.12900
H3486       H  0.35637973  0.13027721  0.87725959     0.12600
H3487       H  0.35678628  0.10909052  0.85589047     0.13200
H3488       H  0.30647910  0.12048043  0.84302363     0.15100
C3489       C  0.41873937  0.22324520  0.74064990    -0.04900
C3490       C  0.41162326  0.23825294  0.73589446    -0.04800
C3491       C  0.41047160  0.25127090  0.74706275    -0.23000
C3492       C  0.41640873  0.24951574  0.76320163     0.19200
C3493       C  0.42350642  0.23444394  0.76813227     0.16400
C3494       C  0.42462368  0.22143894  0.75685364    -0.18000
C3495       C  0.42940641  0.23263652  0.78426184    -0.19900
C3496       C  0.42839652  0.24566761  0.79539055    -0.12400
C3497       C  0.42144467  0.26075763  0.79062949     0.04200
C3498       C  0.41540615  0.26256545  0.77447693    -0.24600
H3499       H  0.40694849  0.23994057  0.72351269     0.09300
H3500       H  0.40495968  0.26271907  0.74306560     0.12900
H3501       H  0.43007197  0.20990623  0.76071511     0.12900
H3502       H  0.43484220  0.22115310  0.78826720     0.12600
H3503       H  0.43306451  0.24391564  0.80776670     0.13200
H3504       H  0.40996345  0.27411450  0.77066371     0.15100
C3505       C  0.34935430  0.23362911  0.88933179    -0.04900
C3506       C  0.34406528  0.23661969  0.87311213    -0.04800
C3507       C  0.35311228  0.24667448  0.86268766    -0.23000
C3508       C  0.36766016  0.25401834  0.86824411     0.19200
C3509       C  0.37330466  0.25113927  0.88446565     0.16400
C3510       C  0.36408938  0.24089069  0.89497892    -0.18000
C3511       C  0.38799990  0.25863244  0.88978091    -0.19900
C3512       C  0.39691693  0.26885693  0.87910869    -0.12400
C3513       C  0.39123753  0.27174182  0.86299898     0.04200
C3514       C  0.37659013  0.26422606  0.85772105    -0.24600
H3515       H  0.33280765  0.23119386  0.86840891     0.09300
H3516       H  0.34867256  0.24875672  0.85026767     0.12900
H3517       H  0.36827299  0.23868972  0.90746439     0.12900
H3518       H  0.39258526  0.25658639  0.90214731     0.12600
H3519       H  0.40823923  0.27445879  0.88342473     0.13200
H3520       H  0.37208748  0.26626444  0.84530947     0.15100
C3521       C  0.16899219  0.47300077  0.69182361    -0.04900
C3522       C  0.15471969  0.48094426  0.69751163    -0.04800
C3523       C  0.15344605  0.49805619  0.69698644    -0.23000
C3524       C  0.16651622  0.50755058  0.69094514     0.19200
C3525       C  0.18054160  0.49965528  0.68437339     0.16400
C3526       C  0.18160185  0.48243531  0.68466536    -0.18000
C3527       C  0.19369133  0.50913820  0.67849324    -0.19900
C3528       C  0.19344500  0.52621635  0.68013331    -0.12400
C3529       C  0.17995924  0.53413973  0.68747447     0.04200
C3530       C  0.16621300  0.52475649  0.69224193    -0.24600
H3531       H  0.14477631  0.47396441  0.70297980     0.09300
H3532       H  0.14254731  0.50388027  0.70196599     0.12900
H3533       H  0.19264829  0.47646619  0.68019330     0.12900
H3534       H  0.20448053  0.50331219  0.67328935     0.12600
H3535       H  0.20410715  0.53317872  0.67619940     0.13200
H3536       H  0.15570385  0.53072722  0.69785441     0.15100
C3537       C  0.11739720  0.35197374  0.77341752    -0.04900
C3538       C  0.13449454  0.34927570  0.77377001    -0.04800
C3539       C  0.14508796  0.35912698  0.76457513    -0.23000
C3540       C  0.13877118  0.37182778  0.75480406     0.19200
C3541       C  0.12161760  0.37481837  0.75445918     0.16400
C3542       C  0.11102045  0.36487746  0.76380394    -0.18000
C3543       C  0.11539904  0.38762037  0.74467993    -0.19900
C3544       C  0.12607646  0.39723099  0.73519638    -0.12400
C3545       C  0.14310932  0.39412459  0.73529210     0.04200
C3546       C  0.14935664  0.38146487  0.74525009    -0.24600
H3547       H  0.13971106  0.33949025  0.78115691     0.09300
H3548       H  0.15821743  0.35673185  0.76501790     0.12900
H3549       H  0.09785031  0.36707882  0.76346542     0.12900
H3550       H  0.10229129  0.39012312  0.74427954     0.12600
H3551       H  0.12099157  0.40693588  0.72761495     0.13200
H3552       H  0.16248835  0.37901947  0.74550404     0.15100
C3553       C  0.23929059  0.28800621  0.92658103    -0.04900
C3554       C  0.25443409  0.29198630  0.93402597    -0.04800
C3555       C  0.26722777  0.28053144  0.93463229    -0.23000
C3556       C  0.26512884  0.26489006  0.92774076     0.19200
C3557       C  0.24988545  0.26069109  0.92038125     0.16400
C3558       C  0.23705908  0.27224661  0.91987972    -0.18000
C3559       C  0.24778697  0.24505881  0.91347648    -0.19900
C3560       C  0.26071330  0.23374196  0.91369623    -0.12400
C3561       C  0.27597559  0.23782994  0.92081411     0.04200
C3562       C  0.27806662  0.25344481  0.92792347    -0.24600
H3563       H  0.25645506  0.30404211  0.93928486     0.09300
H3564       H  0.27880640  0.28396080  0.94035146     0.12900
H3565       H  0.22545137  0.26904657  0.91406935     0.12900
H3566       H  0.23619175  0.24162192  0.90779673     0.12600
H3567       H  0.25879549  0.22180452  0.90814008     0.13200
H3568       H  0.28977855  0.25674943  0.93345940     0.15100
C3569       C  0.18952116  0.33534384  0.97326755    -0.04900
C3570       C  0.19418497  0.35002740  0.98112061    -0.04800
C3571       C  0.19342927  0.35142116  0.99831227    -0.23000
C3572       C  0.18808444  0.33811566  0.00793648     0.19200
C3573       C  0.18265384  0.32362270  0.00002388     0.16400
C3574       C  0.18330786  0.32238174  0.98283368    -0.18000
C3575       C  0.17725574  0.31028858  0.00943750    -0.19900
C3576       C  0.17789025  0.31096394  0.02655921    -0.12400
C3577       C  0.18396192  0.32496782  0.03468930     0.04200
C3578       C  0.18867326  0.33873384  0.02528022    -0.24600
H3579       H  0.19895585  0.36022728  0.97402673     0.09300
H3580       H  0.19752086  0.36270057  0.00409744     0.12900
H3581       H  0.17959063  0.31100888  0.97695924     0.12900
H3582       H  0.17298019  0.29912362  0.00355319     0.12600
H3583       H  0.17413975  0.30020768  0.03344094     0.13200
H3584       H  0.19333672  0.34962591  0.03138542     0.15100
C3585       C  0.11279815  0.32280010  0.84836811    -0.04900
C3586       C  0.11378988  0.33790350  0.85669783    -0.04800
C3587       C  0.12461687  0.33996476  0.86994190    -0.23000
C3588       C  0.13471296  0.32697364  0.87507806     0.19200
C3589       C  0.13336364  0.31154115  0.86721008     0.16400
C3590       C  0.12238994  0.30953492  0.85394812    -0.18000
C3591       C  0.14343274  0.29853940  0.87237241    -0.19900
C3592       C  0.15522874  0.30098910  0.88469379    -0.12400
C3593       C  0.15719117  0.31648165  0.89209101     0.04200
C3594       C  0.14656390  0.32933096  0.88750444    -0.24600
H3595       H  0.10650292  0.34830489  0.85268728     0.09300
H3596       H  0.12540523  0.35185370  0.87587927     0.12900
H3597       H  0.12173164  0.29782022  0.84764517     0.12900
H3598       H  0.14251600  0.28659863  0.86655805     0.12600
H3599       H  0.16323823  0.29087586  0.88800704     0.13200
H3600       H  0.14792581  0.34132360  0.89313800     0.15100
C3601       C  0.26673508  0.42261717  0.77923171    -0.04900
C3602       C  0.27153052  0.41627896  0.76387931    -0.04800
C3603       C  0.26056774  0.41630888  0.75049385    -0.23000
C3604       C  0.24459404  0.42270959  0.75219092     0.19200
C3605       C  0.23986171  0.42954831  0.76744962     0.16400
C3606       C  0.25090504  0.42945433  0.78080733    -0.18000
C3607       C  0.22401824  0.43608916  0.76923528    -0.19900
C3608       C  0.21273779  0.43536831  0.75625257    -0.12400
C3609       C  0.21700178  0.42810720  0.74114822     0.04200
C3610       C  0.23314155  0.42206526  0.73908570    -0.24600
H3611       H  0.28367880  0.41103302  0.76228958     0.09300
H3612       H  0.26450385  0.41109834  0.73888969     0.12900
H3613       H  0.24705907  0.43451151  0.79252078     0.12900
H3614       H  0.22022280  0.44149461  0.78080139     0.12600
H3615       H  0.20047939  0.44022910  0.75819237     0.13200
H3616       H  0.23663659  0.41648795  0.72750491     0.15100
C3617       C  0.30999376  0.47294411  0.82751629    -0.04900
C3618       C  0.31970340  0.48110142  0.81577033    -0.04800
C3619       C  0.32046723  0.49826923  0.81541861    -0.23000
C3620       C  0.31144078  0.50761535  0.82674644     0.19200
C3621       C  0.30206113  0.49952821  0.83893811     0.16400
C3622       C  0.30151955  0.48228083  0.83934140    -0.18000
C3623       C  0.29293082  0.50882826  0.85019502    -0.19900
C3624       C  0.29274445  0.52596141  0.84914999    -0.12400
C3625       C  0.30172234  0.53416755  0.83687207     0.04200
C3626       C  0.31125692  0.52487470  0.82581615    -0.24600
H3627       H  0.32636555  0.47421258  0.80654284     0.09300
H3628       H  0.32778098  0.50423569  0.80601850     0.12900
H3629       H  0.29396039  0.47616248  0.84845621     0.12900
H3630       H  0.28566251  0.50284018  0.85961771     0.12600
H3631       H  0.28527298  0.53278848  0.85778434     0.13200
H3632       H  0.31821165  0.53102826  0.81625718     0.15100
C3633       C  0.38459725  0.34255906  0.81935926    -0.04900
C3634       C  0.37669088  0.34460082  0.80407634    -0.04800
C3635       C  0.36470156  0.35671614  0.80188694    -0.23000
C3636       C  0.36033736  0.36703751  0.81495747     0.19200
C3637       C  0.36847412  0.36539740  0.83028319     0.16400
C3638       C  0.38058874  0.35320866  0.83238304    -0.18000
C3639       C  0.36406899  0.37573534  0.84334448    -0.19900
C3640       C  0.35142420  0.38725434  0.84138101    -0.12400
C3641       C  0.34296927  0.38872038  0.82631136     0.04200
C3642       C  0.34770828  0.37870327  0.81304966    -0.24600
H3643       H  0.37955980  0.33660474  0.79383428     0.09300
H3644       H  0.35864189  0.35782254  0.79004021     0.12900
H3645       H  0.38659409  0.35178009  0.84423007     0.12900
H3646       H  0.37019301  0.37471649  0.85516700     0.12600
H3647       H  0.34805493  0.39482982  0.85178801     0.13200
H3648       H  0.34130512  0.37968805  0.80136556     0.15100
C3649       C  0.26778122  0.39523330  0.85815460    -0.04900
C3650       C  0.26541688  0.40153785  0.87407963    -0.04800
C3651       C  0.25524199  0.39337823  0.88531445    -0.23000
C3652       C  0.24722885  0.37877804  0.88080511     0.19200
C3653       C  0.24954058  0.37238303  0.86480131     0.16400
C3654       C  0.25976907  0.38061453  0.85362727    -0.18000
C3655       C  0.24162459  0.35780870  0.86020785    -0.19900
C3656       C  0.23159502  0.34954223  0.87137777    -0.12400
C3657       C  0.22923003  0.35567362  0.88736981     0.04200
C3658       C  0.23704361  0.37039706  0.89200650    -0.24600
H3659       H  0.27145842  0.41278598  0.87786742     0.09300
H3660       H  0.25365518  0.39847793  0.89751738     0.12900
H3661       H  0.26147426  0.37561993  0.84138730     0.12900
H3662       H  0.24326113  0.35274025  0.84799597     0.12600
H3663       H  0.22576200  0.33821639  0.86749166     0.13200
H3664       H  0.23538889  0.37519356  0.90432969     0.15100
C3665       C  0.17341772  0.30826337  0.53752802    -0.04900
C3666       C  0.18537235  0.31782305  0.52949409    -0.04800
C3667       C  0.18559440  0.31898818  0.51233497    -0.23000
C3668       C  0.17396524  0.31047195  0.50281564     0.19200
C3669       C  0.16163222  0.30109675  0.51070862     0.16400
C3670       C  0.16134298  0.30016177  0.52801745    -0.18000
C3671       C  0.15015493  0.29240507  0.50111856    -0.19900
C3672       C  0.15121439  0.29259437  0.48391665    -0.12400
C3673       C  0.16367720  0.30158992  0.47595498     0.04200
C3674       C  0.17482241  0.31076570  0.48554107    -0.24600
H3675       H  0.19481799  0.32415495  0.53648292     0.09300
H3676       H  0.19513033  0.32623885  0.50649437     0.12900
H3677       H  0.15211717  0.29264451  0.53402768     0.12900
H3678       H  0.14059859  0.28514874  0.50692133     0.12600
H3679       H  0.14247894  0.28539839  0.47684748     0.13200
H3680       H  0.18453401  0.31769700  0.47958981     0.15100
C3681       C  0.17674766  0.38783527  0.66225611    -0.04900
C3682       C  0.16293630  0.38742419  0.65174489    -0.04800
C3683       C  0.16153863  0.37548829  0.63941523    -0.23000
C3684       C  0.17390740  0.36364469  0.63735009     0.19200
C3685       C  0.18793028  0.36402781  0.64772034     0.16400
C3686       C  0.18928382  0.37610871  0.66005476    -0.18000
C3687       C  0.20028202  0.35217778  0.64571775    -0.19900
C3688       C  0.19871815  0.33998846  0.63368690    -0.12400
C3689       C  0.18476511  0.33932123  0.62337969     0.04200
C3690       C  0.17240271  0.35131263  0.62525347    -0.24600
H3691       H  0.15306819  0.39625115  0.65317252     0.09300
H3692       H  0.15069389  0.37542467  0.63160537     0.12900
H3693       H  0.19995211  0.37618908  0.66811338     0.12900
H3694       H  0.21110935  0.35224474  0.65355307     0.12600
H3695       H  0.20839242  0.33090248  0.63260952     0.13200
H3696       H  0.16154278  0.35093758  0.61746525     0.15100
C3697       C  0.07949915  0.27787764  0.76936278    -0.04900
C3698       C  0.06824338  0.27939957  0.75627240    -0.04800
C3699       C  0.06652849  0.26692977  0.74465560    -0.23000
C3700       C  0.07624539  0.25278049  0.74574032     0.19200
C3701       C  0.08735852  0.25085483  0.75903927     0.16400
C3702       C  0.08878785  0.26336440  0.77091857    -0.18000
C3703       C  0.09720228  0.23670276  0.75987265    -0.19900
C3704       C  0.09651575  0.22495360  0.74729996    -0.12400
C3705       C  0.08588048  0.22710678  0.73378243     0.04200
C3706       C  0.07544775  0.24085051  0.73335752    -0.24600
H3707       H  0.06082991  0.29037434  0.75490436     0.09300
H3708       H  0.05790602  0.26855324  0.73457764     0.12900
H3709       H  0.09751199  0.26207927  0.78096146     0.12900
H3710       H  0.10575714  0.23495429  0.76998110     0.12600
H3711       H  0.10464322  0.21442717  0.74792259     0.13200
H3712       H  0.06713783  0.24262736  0.72303783     0.15100
C3713       C  0.11685145  0.23096013  0.66084791    -0.04900
C3714       C  0.13126022  0.23746352  0.66798236    -0.04800
C3715       C  0.14123402  0.24835120  0.65928691    -0.23000
C3716       C  0.13703834  0.25298562  0.64323210     0.19200
C3717       C  0.12246753  0.24679654  0.63592236     0.16400
C3718       C  0.11242279  0.23580547  0.64479119    -0.18000
C3719       C  0.11834948  0.25160498  0.61982690    -0.19900
C3720       C  0.12868878  0.26221865  0.61102210    -0.12400
C3721       C  0.14335205  0.26812639  0.61812900     0.04200
C3722       C  0.14734201  0.26354511  0.63432262    -0.24600
H3723       H  0.13493293  0.23404285  0.68034060     0.09300
H3724       H  0.15232369  0.25303791  0.66508798     0.12900
H3725       H  0.10132600  0.23092442  0.63916664     0.12900
H3726       H  0.10723423  0.24703361  0.61399339     0.12600
H3727       H  0.12538720  0.26553467  0.59853296     0.13200
H3728       H  0.15858695  0.26806971  0.63996995     0.15100
C3729       C  0.21733468  0.25993125  0.58403476    -0.04900
C3730       C  0.21365695  0.24539121  0.57544627    -0.04800
C3731       C  0.22542998  0.23299741  0.57388556    -0.23000
C3732       C  0.24104862  0.23483060  0.58105269     0.19200
C3733       C  0.24494664  0.24945735  0.58959948     0.16400
C3734       C  0.23311383  0.26196616  0.59092538    -0.18000
C3735       C  0.26051815  0.25119391  0.59691653    -0.19900
C3736       C  0.27200877  0.23845267  0.59603998    -0.12400
C3737       C  0.26817152  0.22377986  0.58776206     0.04200
C3738       C  0.25270781  0.22215225  0.58009245    -0.24600
H3739       H  0.20161378  0.24356319  0.56996186     0.09300
H3740       H  0.22223476  0.22188334  0.56726939     0.12900
H3741       H  0.23606832  0.27310877  0.59761224     0.12900
H3742       H  0.26373242  0.26231328  0.60351031     0.12600
H3743       H  0.28385321  0.24001937  0.60201669     0.13200
H3744       H  0.24960950  0.21090226  0.57365194     0.15100
C3745       C  0.31261619  0.18247179  0.53490223    -0.04900
C3746       C  0.31650603  0.19741067  0.52714321    -0.04800
C3747       C  0.31662260  0.19863993  0.51001508    -0.23000
C3748       C  0.31281540  0.18495763  0.50027868     0.19200
C3749       C  0.30929292  0.16973906  0.50786674     0.16400
C3750       C  0.30928371  0.16856540  0.52514843    -0.18000
C3751       C  0.30534814  0.15612007  0.49802223    -0.19900
C3752       C  0.30438035  0.15771517  0.48087840    -0.12400
C3753       C  0.30745802  0.17292312  0.47327896     0.04200
C3754       C  0.31199264  0.18641067  0.48309677    -0.24600
H3755       H  0.31903675  0.20832406  0.53433362     0.09300
H3756       H  0.31933913  0.21039937  0.50439037     0.12900
H3757       H  0.30619185  0.15699519  0.53097528     0.12900
H3758       H  0.30263714  0.14433867  0.50359703     0.12600
H3759       H  0.30084890  0.14714111  0.47359777     0.13200
H3760       H  0.31435788  0.19822638  0.47741912     0.15100
C3761       C  0.34742711  0.18746693  0.61836215    -0.04900
C3762       C  0.35108763  0.20287710  0.62527323    -0.04800
C3763       C  0.36335624  0.20451291  0.63723442    -0.23000
C3764       C  0.37215102  0.19073989  0.64265815     0.19200
C3765       C  0.36899763  0.17523535  0.63547154     0.16400
C3766       C  0.35673196  0.17370687  0.62325274    -0.18000
C3767       C  0.37780010  0.16147463  0.64104444    -0.19900
C3768       C  0.38920101  0.16297784  0.65393887    -0.12400
C3769       C  0.39205293  0.17827258  0.66146781     0.04200
C3770       C  0.38366498  0.19216377  0.65551481    -0.24600
H3771       H  0.34417892  0.21368189  0.62168851     0.09300
H3772       H  0.36566640  0.21650199  0.64255050     0.12900
H3773       H  0.35399971  0.16174757  0.61805926     0.12900
H3774       H  0.37559918  0.14948406  0.63569141     0.12600
H3775       H  0.39548208  0.15207756  0.65830000     0.13200
H3776       H  0.38574479  0.20403596  0.66119139     0.15100
C3777       C  0.29585496  0.07567107  0.76847324    -0.04900
C3778       C  0.29968772  0.06825042  0.75334447    -0.04800
C3779       C  0.28828571  0.06816103  0.74046260    -0.23000
C3780       C  0.27282379  0.07549496  0.74245979     0.19200
C3781       C  0.26874565  0.08289585  0.75764649     0.16400
C3782       C  0.28028576  0.08293007  0.77056965    -0.18000
C3783       C  0.25323777  0.09021975  0.75958333    -0.19900
C3784       C  0.24190208  0.09022925  0.74659052    -0.12400
C3785       C  0.24590581  0.08296239  0.73143796     0.04200
C3786       C  0.26141742  0.07560451  0.72947830    -0.24600
H3787       H  0.31160364  0.06261244  0.75139581     0.09300
H3788       H  0.29160360  0.06243079  0.72890459     0.12900
H3789       H  0.27721272  0.08873829  0.78216056     0.12900
H3790       H  0.24989303  0.09597135  0.77111956     0.12600
H3791       H  0.23003581  0.09602984  0.74836636     0.13200
H3792       H  0.26464417  0.06997111  0.71783941     0.15100
C3793       C  0.20161413  0.03267785  0.68091360    -0.04900
C3794       C  0.20998593  0.02442289  0.66827228    -0.04800
C3795       C  0.20937066  0.00729409  0.66713807    -0.23000
C3796       C  0.20027511  0.99812007  0.67856550     0.19200
C3797       C  0.19114471  0.00635208  0.69082763     0.16400
C3798       C  0.19187833  0.02355607  0.69192982    -0.18000
C3799       C  0.18187504  0.99719863  0.70212261    -0.19900
C3800       C  0.18217351  0.98003692  0.70170696    -0.12400
C3801       C  0.19177593  0.97170320  0.69002475     0.04200
C3802       C  0.20055286  0.98086465  0.67825352    -0.24600
H3803       H  0.21753925  0.03116509  0.65962523     0.09300
H3804       H  0.21634583  0.00120255  0.65757426     0.12900
H3805       H  0.18526565  0.02979393  0.70166518     0.12900
H3806       H  0.17470409  0.00330446  0.71153127     0.12600
H3807       H  0.17527389  0.97328224  0.71087395     0.13200
H3808       H  0.20794878  0.97459018  0.66912515     0.15100
C3809       C  0.16564976  0.11183305  0.69531188    -0.04900
C3810       C  0.16081977  0.11726065  0.71099402    -0.04800
C3811       C  0.14768897  0.12817837  0.71276213    -0.23000
C3812       C  0.13920163  0.13391890  0.69886708     0.19200
C3813       C  0.14355246  0.12806365  0.68309091     0.16400
C3814       C  0.15668710  0.11699460  0.68142134    -0.18000
C3815       C  0.13508536  0.13384944  0.66919559    -0.19900
C3816       C  0.12293912  0.14587826  0.67082869    -0.12400
C3817       C  0.11900237  0.15226990  0.68638727     0.04200
C3818       C  0.12688296  0.14588536  0.70042386    -0.24600
H3819       H  0.16749488  0.11342121  0.72189494     0.09300
H3820       H  0.14447352  0.13247790  0.72495532     0.12900
H3821       H  0.16028695  0.11287194  0.66926971     0.12900
H3822       H  0.13819091  0.12943261  0.65701748     0.12600
H3823       H  0.11699340  0.15055494  0.65983832     0.13200
H3824       H  0.12392063  0.15069114  0.71249827     0.15100
C3825       C  0.24008345  0.11782176  0.65882937    -0.04900
C3826       C  0.24399023  0.13350205  0.66494040    -0.04800
C3827       C  0.25327399  0.14448395  0.65561208    -0.23000
C3828       C  0.25884735  0.14003066  0.63995293     0.19200
C3829       C  0.25506372  0.12431755  0.63359834     0.16400
C3830       C  0.24571734  0.11326833  0.64310341    -0.18000
C3831       C  0.26069906  0.12000112  0.61785771    -0.19900
C3832       C  0.27001800  0.13113384  0.60856136    -0.12400
C3833       C  0.27386708  0.14675387  0.61486200     0.04200
C3834       C  0.26816401  0.15108363  0.63058470    -0.24600
H3835       H  0.23986604  0.13731805  0.67700788     0.09300
H3836       H  0.25608807  0.15648384  0.66065814     0.12900
H3837       H  0.24281737  0.10120158  0.63826638     0.12900
H3838       H  0.25791370  0.10802633  0.61274548     0.12600
H3839       H  0.27423536  0.12751781  0.59646669     0.13200
H3840       H  0.27100922  0.16309317  0.63560512     0.15100
C3841       C  0.80662072  0.02898398  0.67755474    -0.04900
C3842       C  0.81557787  0.02106027  0.69009334    -0.04800
C3843       C  0.81621627  0.00394491  0.69096593    -0.23000
C3844       C  0.80796991  0.99432518  0.67925910     0.19200
C3845       C  0.79930451  0.00207941  0.66628378     0.16400
C3846       C  0.79864216  0.01937055  0.66551741    -0.18000
C3847       C  0.79116643  0.99237264  0.65453017    -0.19900
C3848       C  0.79120548  0.97522002  0.65589223    -0.12400
C3849       C  0.79937674  0.96739705  0.66902303     0.04200
C3850       C  0.80796332  0.97709233  0.68054240    -0.24600
H3851       H  0.82180309  0.02811452  0.69954833     0.09300
H3852       H  0.82295975  0.99823229  0.70097005     0.12900
H3853       H  0.79167795  0.02530077  0.65578756     0.12900
H3854       H  0.78452499  0.99804789  0.64443766     0.12600
H3855       H  0.78451222  0.96807703  0.64683357     0.13200
H3856       H  0.81431879  0.97126337  0.69073882     0.15100
C3857       C  0.68928680  0.17919432  0.53250029    -0.04900
C3858       C  0.68192792  0.19306430  0.52524078    -0.04800
C3859       C  0.68071300  0.19447767  0.50811136    -0.23000
C3860       C  0.68691462  0.18207802  0.49788053     0.19200
C3861       C  0.69387234  0.16784903  0.50504207     0.16400
C3862       C  0.69494994  0.16646463  0.52227026    -0.18000
C3863       C  0.70012844  0.15546811  0.49484079    -0.19900
C3864       C  0.70012707  0.15744283  0.47774363    -0.12400
C3865       C  0.69379306  0.17179022  0.47046858     0.04200
C3866       C  0.68680750  0.18391161  0.48064772    -0.24600
H3867       H  0.67745359  0.20304340  0.53280839     0.09300
H3868       H  0.67528478  0.20545509  0.50286640     0.12900
H3869       H  0.70065247  0.15569969  0.52768070     0.12900
H3870       H  0.70543008  0.14443608  0.50009952     0.12600
H3871       H  0.70551594  0.14789001  0.47022208     0.13200
H3872       H  0.68186068  0.19503397  0.47522369     0.15100
C3873       C  0.73155914  0.14297491  0.61045441    -0.04900
C3874       C  0.73393268  0.12690911  0.60461726    -0.04800
C3875       C  0.74391601  0.11585199  0.61332952    -0.23000
C3876       C  0.75164390  0.12067306  0.62804674     0.19200
C3877       C  0.74936568  0.13685143  0.63390413     0.16400
C3878       C  0.73945115  0.14785513  0.62507417    -0.18000
C3879       C  0.75691381  0.14177342  0.64860543    -0.19900
C3880       C  0.76655195  0.13075316  0.65754973    -0.12400
C3881       C  0.76894785  0.11459889  0.65194929     0.04200
C3882       C  0.76149852  0.10963311  0.63708508    -0.24600
H3883       H  0.72801088  0.12287169  0.59336396     0.09300
H3884       H  0.74550404  0.10351253  0.60861644     0.12900
H3885       H  0.73776278  0.16021983  0.62971644     0.12900
H3886       H  0.75528720  0.15413778  0.65325274     0.12600
H3887       H  0.77216719  0.13492488  0.66891160     0.13200
H3888       H  0.76323539  0.09720531  0.63265046     0.15100
C3889       C  0.72261180  0.07564286  0.76713032    -0.04900
C3890       C  0.71860940  0.06630952  0.75312903    -0.04800
C3891       C  0.72946259  0.06526488  0.73993451    -0.23000
C3892       C  0.74451696  0.07363106  0.74040636     0.19200
C3893       C  0.74892275  0.08282314  0.75450614     0.16400
C3894       C  0.73796180  0.08369486  0.76787454    -0.18000
C3895       C  0.76403463  0.09124243  0.75477007    -0.19900
C3896       C  0.77444667  0.09085057  0.74104917    -0.12400
C3897       C  0.76994102  0.08196956  0.72689937     0.04200
C3898       C  0.75504300  0.07319905  0.72680810    -0.24600
H3899       H  0.70692112  0.05993375  0.75225802     0.09300
H3900       H  0.72594087  0.05813253  0.72922875     0.12900
H3901       H  0.74117322  0.09094303  0.77859988     0.12900
H3902       H  0.76767452  0.09832635  0.76546368     0.12600
H3903       H  0.78590928  0.09766234  0.74142671     0.13200
H3904       H  0.75144054  0.06625323  0.71599789     0.15100
C3905       C  0.66730153  0.96791236  0.80939091    -0.04900
C3906       C  0.65367496  0.97597639  0.80237278    -0.04800
C3907       C  0.65257743  0.99313116  0.80270698    -0.23000
C3908       C  0.66511385  0.00251900  0.81004279     0.19200
C3909       C  0.67849580  0.99445205  0.81774938     0.16400
C3910       C  0.67946345  0.97725484  0.81744100    -0.18000
C3911       C  0.69105226  0.00372591  0.82509357    -0.19900
C3912       C  0.69076163  0.02083130  0.82420439    -0.12400
C3913       C  0.67791395  0.02904394  0.81597176     0.04200
C3914       C  0.66485775  0.01979269  0.80925827    -0.24600
H3915       H  0.64415167  0.96905779  0.79608384     0.09300
H3916       H  0.64217839  0.99906390  0.79680052     0.12900
H3917       H  0.69003161  0.97119395  0.82292367     0.12900
H3918       H  0.70135818  0.99774321  0.83111847     0.12600
H3919       H  0.70094821  0.02762456  0.82951828     0.13200
H3920       H  0.65488326  0.02596255  0.80286984     0.15100
C3921       C  0.53618192  0.17427097  0.70033142    -0.04900
C3922       C  0.52896768  0.15938832  0.70533629    -0.04800
C3923       C  0.51188757  0.15729922  0.70490438    -0.23000
C3924       C  0.50166447  0.17010363  0.69956389     0.19200
C3925       C  0.50880060  0.18490050  0.69387563     0.16400
C3926       C  0.52601964  0.18685900  0.69419218    -0.18000
C3927       C  0.49855209  0.19769297  0.68852680    -0.19900
C3928       C  0.48142348  0.19610282  0.68943224    -0.12400
C3929       C  0.47420345  0.18170320  0.69570845     0.04200
C3930       C  0.48443422  0.16857647  0.70039427    -0.24600
H3931       H  0.53652347  0.14945553  0.70999943     0.09300
H3932       H  0.50665513  0.14582833  0.70919150     0.12900
H3933       H  0.53143340  0.19838818  0.69028059     0.12900
H3934       H  0.50377708  0.20909728  0.68405574     0.12600
H3935       H  0.47382770  0.20639327  0.68571607     0.13200
H3936       H  0.47902244  0.15738794  0.70519657     0.15100
C3937       C  0.61916847  0.18697671  0.66595991    -0.04900
C3938       C  0.62847549  0.20136672  0.66376911    -0.04800
C3939       C  0.63959902  0.20272395  0.65079743    -0.23000
C3940       C  0.64176696  0.18964247  0.63984318     0.19200
C3941       C  0.63233608  0.17516361  0.64172889     0.16400
C3942       C  0.62097467  0.17396214  0.65471657    -0.18000
C3943       C  0.63479821  0.16200590  0.63085931    -0.19900
C3944       C  0.64687097  0.16300027  0.61861502    -0.12400
C3945       C  0.65651327  0.17724788  0.61689089     0.04200
C3946       C  0.65360453  0.19065522  0.62735931    -0.24600
H3947       H  0.62730468  0.21156528  0.67223367     0.09300
H3948       H  0.64674425  0.21389666  0.64952844     0.12900
H3949       H  0.61392037  0.16277205  0.65633451     0.12900
H3950       H  0.62768401  0.15081001  0.63208132     0.12600
H3951       H  0.64888383  0.15250322  0.61069819     0.13200
H3952       H  0.66101357  0.20167980  0.62623163     0.15100
C3953       C  0.65442981  0.11556915  0.77712810    -0.04900
C3954       C  0.65962559  0.13203145  0.77650394    -0.04800
C3955       C  0.65125895  0.14346851  0.76683511    -0.23000
C3956       C  0.63757961  0.13865807  0.75747813     0.19200
C3957       C  0.63216731  0.12215076  0.75796705     0.16400
C3958       C  0.64056083  0.11070538  0.76790568    -0.18000
C3959       C  0.61853557  0.11741251  0.74841472    -0.19900
C3960       C  0.61028427  0.12894242  0.73861924    -0.12400
C3961       C  0.61549802  0.14540995  0.73823776     0.04200
C3962       C  0.62923994  0.15013089  0.74765894    -0.24600
H3963       H  0.67025796  0.13609401  0.78349311     0.09300
H3964       H  0.65556387  0.15606937  0.76660136     0.12900
H3965       H  0.63652673  0.09801421  0.76820020     0.12900
H3966       H  0.61422789  0.10481452  0.74855344     0.12600
H3967       H  0.59972870  0.12500043  0.73144989     0.13200
H3968       H  0.63342064  0.16278012  0.74743537     0.15100
C3969       C  0.97462068  0.18701960  0.67874453    -0.04900
C3970       C  0.98197419  0.19330977  0.66441521    -0.04800
C3971       C  0.99910403  0.19350477  0.66271398    -0.23000
C3972       C  0.00921663  0.18743888  0.67533204     0.19200
C3973       C  0.00193930  0.18066221  0.68960008     0.16400
C3974       C  0.98471264  0.18049199  0.69121745    -0.18000
C3975       C  0.01202988  0.17456661  0.70221015    -0.19900
C3976       C  0.02914911  0.17573437  0.70099250    -0.12400
C3977       C  0.03652000  0.18306126  0.68717068     0.04200
C3978       C  0.02645930  0.18853777  0.67417191    -0.24600
H3979       H  0.97448140  0.19843521  0.65463326     0.09300
H3980       H  0.00444334  0.19870798  0.65167212     0.12900
H3981       H  0.97920019  0.17564427  0.70234411     0.12900
H3982       H  0.00668190  0.16926175  0.71319999     0.12600
H3983       H  0.03660937  0.17141004  0.71118142     0.13200
H3984       H  0.03199432  0.19419645  0.66344769     0.15100
C3985       C  0.89288485  0.14872034  0.68846749    -0.04900
C3986       C  0.88905110  0.14154392  0.70372424    -0.04800
C3987       C  0.87688611  0.12942420  0.70488141    -0.23000
C3988       C  0.86823000  0.12434359  0.69081093     0.19200
C3989       C  0.87241096  0.13103327  0.67531697     0.16400
C3990       C  0.88477611  0.14307302  0.67422634    -0.18000
C3991       C  0.86373909  0.12600642  0.66124655    -0.19900
C3992       C  0.85067710  0.11489687  0.66256804    -0.12400
C3993       C  0.84600624  0.10861368  0.67797736     0.04200
C3994       C  0.85508936  0.11314754  0.69204305    -0.24600
H3995       H  0.89512887  0.14565260  0.71487126     0.09300
H3996       H  0.87391956  0.12437881  0.71685233     0.12900
H3997       H  0.88755723  0.14854947  0.66239338     0.12900
H3998       H  0.86678743  0.13097807  0.64926533     0.12600
H3999       H  0.84387222  0.11163876  0.65155621     0.13200
H4000       H  0.85161633  0.10838536  0.70400065     0.15100
C4001       C  0.73467439  0.21967811  0.58821324    -0.04900
C4002       C  0.73267054  0.23259968  0.59949004    -0.04800
C4003       C  0.74440858  0.24515960  0.60054867    -0.23000
C4004       C  0.75832552  0.24498603  0.59034274     0.19200
C4005       C  0.76036653  0.23206609  0.57892463     0.16400
C4006       C  0.74856612  0.21954640  0.57794456    -0.18000
C4007       C  0.77427292  0.23176319  0.56876392    -0.19900
C4008       C  0.78624628  0.24399108  0.57008938    -0.12400
C4009       C  0.78447267  0.25680344  0.58151106     0.04200
C4010       C  0.77035095  0.25734862  0.59148936    -0.24600
H4011       H  0.72209480  0.23292703  0.60757598     0.09300
H4012       H  0.74265376  0.25494225  0.60940566     0.12900
H4013       H  0.75026535  0.20963594  0.56920827     0.12900
H4014       H  0.77599082  0.22195795  0.55992235     0.12600
H4015       H  0.79699217  0.24334119  0.56224852     0.13200
H4016       H  0.76890593  0.26714834  0.60039401     0.15100
C4017       C  0.82667749  0.31078536  0.47546529    -0.04900
C4018       C  0.81452772  0.32011138  0.48345542    -0.04800
C4019       C  0.81397464  0.32088294  0.50062631    -0.23000
C4020       C  0.82548075  0.31222011  0.51015858     0.19200
C4021       C  0.83812665  0.30328043  0.50228525     0.16400
C4022       C  0.83872442  0.30272078  0.48499546    -0.18000
C4023       C  0.84957122  0.29454531  0.51184865    -0.19900
C4024       C  0.84811341  0.29413153  0.52899648    -0.12400
C4025       C  0.83520073  0.30245236  0.53690767     0.04200
C4026       C  0.82415042  0.31181869  0.52739158    -0.24600
H4027       H  0.80513614  0.32646684  0.47642330     0.09300
H4028       H  0.80423986  0.32786205  0.50644890     0.12900
H4029       H  0.84813284  0.29543986  0.47899964     0.12900
H4030       H  0.85937258  0.28764628  0.50604382     0.12600
H4031       H  0.85675739  0.28679540  0.53602408     0.13200
H4032       H  0.81413892  0.31830317  0.53333329     0.15100
C4033       C  0.85364285  0.26135243  0.62192266    -0.04900
C4034       C  0.84649577  0.25661194  0.63693927    -0.04800
C4035       C  0.85477414  0.24608272  0.64768849    -0.23000
C4036       C  0.87038698  0.24003810  0.64364630     0.19200
C4037       C  0.87772262  0.24460270  0.62855586     0.16400
C4038       C  0.86932649  0.25528274  0.61779285    -0.18000
C4039       C  0.89333252  0.23841608  0.62454619    -0.19900
C4040       C  0.90168941  0.22806398  0.63549866    -0.12400
C4041       C  0.89459359  0.22371068  0.65065088     0.04200
C4042       C  0.87882427  0.22962583  0.65454356    -0.24600
H4043       H  0.83441594  0.26104115  0.64040665     0.09300
H4044       H  0.84895757  0.24268488  0.65918433     0.12900
H4045       H  0.87492327  0.25875400  0.60620665     0.12900
H4046       H  0.89913819  0.24169173  0.61301295     0.12600
H4047       H  0.91380887  0.22362141  0.63218836     0.13200
H4048       H  0.87317999  0.22630464  0.66615471     0.15100
C4049       C  0.66587852  0.19128836  0.04051921    -0.04900
C4050       C  0.65336188  0.20047669  0.03282785    -0.04800
C4051       C  0.65147265  0.20029085  0.01572778    -0.23000
C4052       C  0.66216091  0.19101256  0.00592636     0.19200
C4053       C  0.67449329  0.18133206  0.01352032     0.16400
C4054       C  0.67619746  0.18142181  0.03076870    -0.18000
C4055       C  0.68528854  0.17219384  0.00368640    -0.19900
C4056       C  0.68435364  0.17320834  0.98652364    -0.12400
C4057       C  0.67248963  0.18321700  0.97883206     0.04200
C4058       C  0.66112214  0.19176013  0.98865697    -0.24600
H4059       H  0.64519186  0.20812152  0.04002734     0.09300
H4060       H  0.64191671  0.20774623  0.01014759     0.12900
H4061       H  0.68589882  0.17428281  0.03652484     0.12900
H4062       H  0.69477584  0.16464809  0.00925845     0.12600
H4063       H  0.69322978  0.16646223  0.97925651     0.13200
H4064       H  0.65195433  0.19956952  0.98290210     0.15100
C4065       C  0.67653609  0.14963874  0.89619592    -0.04900
C4066       C  0.66142116  0.14230078  0.89195029    -0.04800
C4067       C  0.66069891  0.12997267  0.88000863    -0.23000
C4068       C  0.67508428  0.12476428  0.87206179     0.19200
C4069       C  0.69043502  0.13160961  0.87666636     0.16400
C4070       C  0.69107230  0.14396086  0.88872636    -0.18000
C4071       C  0.70481566  0.12639941  0.86870435    -0.19900
C4072       C  0.70392033  0.11507932  0.85579868    -0.12400
C4073       C  0.68864504  0.10869625  0.85066559     0.04200
C4074       C  0.67429885  0.11328780  0.85917925    -0.24600
H4075       H  0.65004688  0.14645391  0.89749743     0.09300
H4076       H  0.64882932  0.12482512  0.87668138     0.12900
H4077       H  0.70280993  0.14950116  0.89190534     0.12900
H4078       H  0.71670535  0.13143019  0.87213653     0.12600
H4079       H  0.71515735  0.11169695  0.84950235     0.13200
H4080       H  0.66243979  0.10843305  0.85537794     0.15100
C4081       C  0.58597250  0.22451318  0.74317496    -0.04900
C4082       C  0.59364506  0.23949252  0.73922885    -0.04800
C4083       C  0.59361126  0.25255935  0.75042657    -0.23000
C4084       C  0.58588535  0.25086969  0.76576090     0.19200
C4085       C  0.57789710  0.23593217  0.76966776     0.16400
C4086       C  0.57797866  0.22291212  0.75838782    -0.18000
C4087       C  0.57017429  0.23411702  0.78492990    -0.19900
C4088       C  0.57066786  0.24681405  0.79641516    -0.12400
C4089       C  0.57881920  0.26163830  0.79287563     0.04200
C4090       C  0.58624164  0.26369028  0.77737726    -0.24600
H4091       H  0.59989406  0.24102673  0.72757322     0.09300
H4092       H  0.59978661  0.26390117  0.74717218     0.12900
H4093       H  0.57196243  0.21145005  0.76155344     0.12900
H4094       H  0.56395010  0.22277327  0.78809382     0.12600
H4095       H  0.56480104  0.24491780  0.80821618     0.13200
H4096       H  0.59257288  0.27505661  0.77450504     0.15100
C4097       C  0.53067901  0.31010262  0.83884640    -0.04900
C4098       C  0.52284786  0.30594948  0.85369215    -0.04800
C4099       C  0.50573510  0.30705070  0.85518708    -0.23000
C4100       C  0.49609621  0.31218921  0.84181017     0.19200
C4101       C  0.50386324  0.31702245  0.82702463     0.16400
C4102       C  0.52110450  0.31605456  0.82567000    -0.18000
C4103       C  0.49419433  0.32202668  0.81360403    -0.19900
C4104       C  0.47701036  0.32126658  0.81447383    -0.12400
C4105       C  0.46918405  0.31562734  0.82882159     0.04200
C4106       C  0.47881761  0.31173611  0.84268829    -0.24600
H4107       H  0.52992133  0.30137817  0.86404391     0.09300
H4108       H  0.50000342  0.30335328  0.86663343     0.12900
H4109       H  0.52698017  0.31929847  0.81415437     0.12900
H4110       H  0.49991654  0.32589269  0.80221043     0.12600
H4111       H  0.46986517  0.32443855  0.80365209     0.13200
H4112       H  0.47292844  0.30740689  0.85383627     0.15100
C4113       C  0.60717027  0.26480431  0.86705908    -0.04900
C4114       C  0.60355427  0.26510731  0.88396116    -0.04800
C4115       C  0.61153340  0.25439027  0.89485669    -0.23000
C4116       C  0.62325709  0.24316673  0.88902642     0.19200
C4117       C  0.62670659  0.24258194  0.87198563     0.16400
C4118       C  0.61864919  0.25334380  0.86115244    -0.18000
C4119       C  0.63842765  0.23147253  0.86606409    -0.19900
C4120       C  0.64713765  0.22146649  0.87696444    -0.12400
C4121       C  0.64414860  0.22217484  0.89397555     0.04200
C4122       C  0.63188933  0.23280968  0.89993084    -0.24600
H4123       H  0.59469060  0.27377520  0.88879319     0.09300
H4124       H  0.60868524  0.25502293  0.90785668     0.12900
H4125       H  0.62144078  0.25288250  0.84812134     0.12900
H4126       H  0.64113557  0.23078095  0.85303319     0.12600
H4127       H  0.65641303  0.21326647  0.87207493     0.13200
H4128       H  0.62952820  0.23347177  0.91303516     0.15100
C4129       C  0.76677072  0.26609003  0.92235983    -0.04900
C4130       C  0.77066064  0.25079634  0.91537080    -0.04800
C4131       C  0.75913557  0.23800251  0.91538751    -0.23000
C4132       C  0.74354471  0.24028808  0.92243407     0.19200
C4133       C  0.73964143  0.25559087  0.92965603     0.16400
C4134       C  0.75123929  0.26834061  0.92957429    -0.18000
C4135       C  0.72411781  0.25799164  0.93669598    -0.19900
C4136       C  0.71242331  0.24546046  0.93636350    -0.12400
C4137       C  0.71601837  0.23024968  0.92904167     0.04200
C4138       C  0.73171360  0.22765870  0.92222502    -0.24600
H4139       H  0.78255270  0.24878453  0.90971411     0.09300
H4140       H  0.76237162  0.22637551  0.90978687     0.12900
H4141       H  0.74810480  0.28007241  0.93503696     0.12900
H4142       H  0.72094890  0.26963015  0.94231800     0.12600
H4143       H  0.70045622  0.24775302  0.94175258     0.13200
H4144       H  0.73460879  0.21598206  0.91652546     0.15100
C4145       C  0.81032951  0.31282812  0.97336496    -0.04900
C4146       C  0.81820812  0.29984297  0.98164944    -0.04800
C4147       C  0.81888200  0.29938265  0.99880880    -0.23000
C4148       C  0.81165174  0.31189418  0.00812620     0.19200
C4149       C  0.80407337  0.32529870  0.00003827     0.16400
C4150       C  0.80350985  0.32573510  0.98268050    -0.18000
C4151       C  0.79679712  0.33775242  0.00949159    -0.19900
C4152       C  0.79659769  0.33666104  0.02670909    -0.12400
C4153       C  0.80372083  0.32314082  0.03482573     0.04200
C4154       C  0.81149164  0.31093720  0.02539429    -0.24600
H4155       H  0.82356353  0.28975027  0.97484345     0.09300
H4156       H  0.82477224  0.28903666  0.00479686     0.12900
H4157       H  0.79732498  0.33578912  0.97648326     0.12900
H4158       H  0.79094734  0.34815482  0.00356766     0.12600
H4159       H  0.79049168  0.34621649  0.03365870     0.13200
H4160       H  0.81697746  0.30040462  0.03145248     0.15100
C4161       C  0.69331646  0.46318387  0.83085186    -0.04900
C4162       C  0.68619045  0.47122325  0.81726902    -0.04800
C4163       C  0.68477126  0.48831563  0.81698032    -0.23000
C4164       C  0.69051829  0.49772604  0.83024740     0.19200
C4165       C  0.69695576  0.48977343  0.84433055     0.16400
C4166       C  0.69818626  0.47253482  0.84460822    -0.18000
C4167       C  0.70277694  0.49925527  0.85754665    -0.19900
C4168       C  0.70305060  0.51641725  0.85644304    -0.12400
C4169       C  0.69734721  0.52441658  0.84218060     0.04200
C4170       C  0.69062120  0.51495121  0.82932770    -0.24600
H4171       H  0.68226393  0.46433653  0.80655182     0.09300
H4172       H  0.67970961  0.49420311  0.80612579     0.12900
H4173       H  0.70364394  0.46649088  0.85518757     0.12900
H4174       H  0.70766446  0.49339417  0.86849345     0.12600
H4175       H  0.70823360  0.52340772  0.86654507     0.13200
H4176       H  0.68616417  0.52093976  0.81826083     0.15100
C4177       C  0.66368116  0.37995806  0.82169372    -0.04900
C4178       C  0.65976326  0.37255887  0.80655224    -0.04800
C4179       C  0.64688874  0.36119134  0.80535695    -0.23000
C4180       C  0.63773071  0.35689175  0.81931410     0.19200
C4181       C  0.64132523  0.36449523  0.83455089     0.16400
C4182       C  0.65420071  0.37603181  0.83563134    -0.18000
C4183       C  0.63222727  0.36013570  0.84852545    -0.19900
C4184       C  0.61999340  0.34806926  0.84752301    -0.12400
C4185       C  0.61654719  0.34013662  0.83252485     0.04200
C4186       C  0.62533224  0.34482796  0.81837654    -0.24600
H4187       H  0.66682239  0.37539167  0.79562622     0.09300
H4188       H  0.64429256  0.35553931  0.79356067     0.12900
H4189       H  0.65709155  0.38162661  0.84739672     0.12900
H4190       H  0.63477399  0.36584063  0.86030852     0.12600
H4191       H  0.61343600  0.34470843  0.85861175     0.13200
H4192       H  0.62282309  0.33881457  0.80673543     0.15100
C4193       C  0.73594681  0.38248937  0.86110836    -0.04900
C4194       C  0.73799923  0.38732194  0.87758685    -0.04800
C4195       C  0.74744765  0.37782212  0.88845037    -0.23000
C4196       C  0.75498443  0.36330028  0.88302438     0.19200
C4197       C  0.75289460  0.35831736  0.86648589     0.16400
C4198       C  0.74346480  0.36792904  0.85566640    -0.18000
C4199       C  0.76025418  0.34377487  0.86100836    -0.19900
C4200       C  0.76962406  0.33422929  0.87179163    -0.12400
C4201       C  0.77193532  0.33906149  0.88824980     0.04200
C4202       C  0.76455287  0.35366748  0.89380961    -0.24600
H4203       H  0.73232846  0.39848057  0.88207594     0.09300
H4204       H  0.74886321  0.38183659  0.90108317     0.12900
H4205       H  0.74197300  0.36403353  0.84299339     0.12900
H4206       H  0.75875169  0.33976246  0.84838022     0.12600
H4207       H  0.77514858  0.32304248  0.86718627     0.13200
H4208       H  0.76616570  0.35747484  0.90649055     0.15100
C4209       C  0.92850246  0.27467298  0.76825145    -0.04900
C4210       C  0.94000678  0.27702704  0.75555783    -0.04800
C4211       C  0.94135978  0.26566093  0.74278331    -0.23000
C4212       C  0.93113577  0.25179551  0.74241000     0.19200
C4213       C  0.91979502  0.24911145  0.75531573     0.16400
C4214       C  0.91863361  0.26050136  0.76821458    -0.18000
C4215       C  0.90952866  0.23527362  0.75489881    -0.19900
C4216       C  0.91026552  0.22434869  0.74167692    -0.12400
C4217       C  0.92127752  0.22706133  0.72864403     0.04200
C4218       C  0.93182914  0.24074954  0.72918876    -0.24600
H4219       H  0.94779655  0.28783118  0.75534696     0.09300
H4220       H  0.95017017  0.26788328  0.73303799     0.12900
H4221       H  0.90969812  0.25859246  0.77791854     0.12900
H4222       H  0.90077807  0.23301189  0.76468567     0.12600
H4223       H  0.90203927  0.21387126  0.74154949     0.13200
H4224       H  0.94042451  0.24293308  0.71923647     0.15100
C4225       C  0.97203869  0.32094504  0.81710319    -0.04900
C4226       C  0.97983163  0.30917568  0.82711282    -0.04800
C4227       C  0.99696149  0.30899747  0.82881383    -0.23000
C4228       C  0.00663926  0.32052612  0.82044056     0.19200
C4229       C  0.99891113  0.33291049  0.81097141     0.16400
C4230       C  0.98165217  0.33310487  0.80943500    -0.18000
C4231       C  0.00862369  0.34444519  0.80261895    -0.19900
C4232       C  0.02580503  0.34318757  0.80291890    -0.12400
C4233       C  0.03357875  0.33037972  0.81156549     0.04200
C4234       C  0.02390455  0.31939505  0.82075458    -0.24600
H4235       H  0.97271329  0.29972565  0.83321997     0.09300
H4236       H  0.00266358  0.29949353  0.83622360     0.12900
H4237       H  0.97579679  0.34224480  0.80168088     0.12900
H4238       H  0.00293313  0.35409332  0.79539182     0.12600
H4239       H  0.03298015  0.35184221  0.79578436     0.13200
H4240       H  0.02975718  0.30951854  0.82754263     0.15100
C4241       C  0.88982086  0.31521402  0.84735390    -0.04900
C4242       C  0.88392088  0.33057107  0.85259351    -0.04800
C4243       C  0.87193922  0.33165946  0.86483884    -0.23000
C4244       C  0.86562987  0.31740669  0.87214859     0.19200
C4245       C  0.87175637  0.30189311  0.86731208     0.16400
C4246       C  0.88383984  0.30088701  0.85496581    -0.18000
C4247       C  0.86533185  0.28764953  0.87458630    -0.19900
C4248       C  0.85259811  0.28873403  0.88611181    -0.12400
C4249       C  0.84617197  0.30408459  0.89073998     0.04200
C4250       C  0.85299052  0.31840698  0.88389065    -0.24600
H4251       H  0.88824450  0.34179059  0.84688950     0.09300
H4252       H  0.86738623  0.34365225  0.86837383     0.12900
H4253       H  0.88827537  0.28897173  0.85102254     0.12900
H4254       H  0.86989431  0.27564770  0.87109519     0.12600
H4255       H  0.84758052  0.27751606  0.89121868     0.13200
H4256       H  0.84807775  0.33031236  0.88726098     0.15100
C4257       C  0.74547750  0.41604733  0.78840267    -0.04900
C4258       C  0.76107316  0.42201462  0.79306900    -0.04800
C4259       C  0.77402843  0.42248621  0.78181721    -0.23000
C4260       C  0.77164851  0.41701771  0.76564213     0.19200
C4261       C  0.75599787  0.41114225  0.76070616     0.16400
C4262       C  0.74299476  0.41070670  0.77211113    -0.18000
C4263       C  0.75369681  0.40564889  0.74449477    -0.19900
C4264       C  0.76681080  0.40582507  0.73334800    -0.12400
C4265       C  0.78242990  0.41156548  0.73818408     0.04200
C4266       C  0.78471457  0.41722449  0.75437524    -0.24600
H4267       H  0.76334312  0.42616078  0.80553411     0.09300
H4268       H  0.78594339  0.42702311  0.78580783     0.12900
H4269       H  0.73104075  0.40606171  0.76836132     0.12900
H4270       H  0.74179375  0.40112288  0.74046622     0.12600
H4271       H  0.76473194  0.40143593  0.72093468     0.13200
H4272       H  0.79670679  0.42165075  0.75827986     0.15100
C4273       C  0.82933755  0.46353131  0.69436632    -0.04900
C4274       C  0.84342413  0.47182073  0.70010698    -0.04800
C4275       C  0.84427809  0.48893242  0.69965726    -0.23000
C4276       C  0.83101013  0.49810606  0.69354312     0.19200
C4277       C  0.81705113  0.48991901  0.68706975     0.16400
C4278       C  0.81633561  0.47266478  0.68742687    -0.18000
C4279       C  0.80378363  0.49916618  0.68099125    -0.19900
C4280       C  0.80399139  0.51630972  0.68211161    -0.12400
C4281       C  0.81748455  0.52450678  0.68927334     0.04200
C4282       C  0.83118851  0.51531409  0.69448870    -0.24600
H4283       H  0.85363942  0.46508705  0.70542733     0.09300
H4284       H  0.85511038  0.49500323  0.70457551     0.12900
H4285       H  0.80541755  0.46641681  0.68292333     0.12900
H4286       H  0.79301858  0.49313097  0.67588412     0.12600
H4287       H  0.79330066  0.52311301  0.67794430     0.13200
H4288       H  0.84170069  0.52148917  0.69995947     0.15100
C4289       C  0.82589542  0.38202030  0.65925921    -0.04900
C4290       C  0.84091144  0.38016578  0.65088599    -0.04800
C4291       C  0.84242686  0.36879377  0.63810983    -0.23000
C4292       C  0.82894823  0.35905037  0.63346921     0.19200
C4293       C  0.81359398  0.36129305  0.64133013     0.16400
C4294       C  0.81214920  0.37278647  0.65413480    -0.18000
C4295       C  0.80009820  0.35159433  0.63663301    -0.19900
C4296       C  0.80196882  0.33932173  0.62477011    -0.12400
C4297       C  0.81736518  0.33650279  0.61739566     0.04200
C4298       C  0.83072639  0.34671270  0.62153070    -0.24600
H4299       H  0.85166838  0.38716067  0.65455129     0.09300
H4300       H  0.85426225  0.36731789  0.63215711     0.12900
H4301       H  0.80048199  0.37414078  0.66045027     0.12900
H4302       H  0.78821004  0.35319458  0.64244934     0.12600
H4303       H  0.79147038  0.33164739  0.62178892     0.13200
H4304       H  0.84264317  0.34470011  0.61589127     0.15100
C4305       C  0.85988038  0.38449708  0.73498729    -0.04900
C4306       C  0.87492521  0.39160591  0.73983876    -0.04800
C4307       C  0.88578411  0.38308011  0.75018268    -0.23000
C4308       C  0.88177822  0.36729323  0.75583540     0.19200
C4309       C  0.86671436  0.36003737  0.75091547     0.16400
C4310       C  0.85591220  0.36865051  0.74055852    -0.18000
C4311       C  0.86263164  0.34428358  0.75647484    -0.19900
C4312       C  0.87336030  0.33575546  0.76682882    -0.12400
C4313       C  0.88838454  0.34279816  0.77185344     0.04200
C4314       C  0.89252961  0.35863313  0.76630978    -0.24600
H4315       H  0.87825238  0.40381328  0.73572353     0.09300
H4316       H  0.89727188  0.38884945  0.75379785     0.12900
H4317       H  0.84435949  0.36301662  0.73690381     0.12900
H4318       H  0.85113599  0.33854935  0.75281896     0.12600
H4319       H  0.86986049  0.32358255  0.77091083     0.13200
H4320       H  0.90408710  0.36417384  0.77007971     0.15100
loop_ 
_geom_bond_atom_site_label_1 
_geom_bond_atom_site_label_2 
_geom_bond_distance 
_geom_bond_site_symmetry_2 
_ccdc_geom_bond_type 
O1            C4   1.267       .  A
O1           Cd6   2.482       .  S
C2           O11   1.265       .  A
C2            O7   1.265       .  A
C2         C4289   1.481       .  S
O3            C9   1.265       .  A
O3           Cd6   2.454       .  S
C4           O12   1.265       .  A
C4         C4265   1.480       .  S
C5           O10   1.266       .  A
C5            O8   1.265       .  A
C5         C4305   1.480       .  S
Cd6          O13   2.484       .  S
Cd6          O12   2.455       .  S
Cd6          O11   2.469       .  S
Cd6           O7   2.477       .  S
Cd6          O10   2.486       .  S
Cd6           O8   2.454       .  S
C9           O13   1.266       .  A
C9         C4273   1.480       .  S
O14          C17   1.269       .  A
O14         Cd19   2.483       .  S
C15          O24   1.264       .  A
C15          O20   1.269       .  A
C15        C4209   1.476       .  S
O16          C22   1.269       .  A
O16         Cd19   2.488       .  S
C17          O25   1.266       .  A
C17        C4241   1.481       .  S
C18          O23   1.269       .  A
C18          O21   1.266       .  A
C18        C4225   1.480       .  S
Cd19         O26   2.428       .  S
Cd19         O25   2.443       .  S
Cd19         O24   2.430       .  S
Cd19         O20   2.477       .  S
Cd19         O23   2.474       .  S
Cd19         O21   2.443       .  S
C22          O26   1.264       .  A
C22        C4313   1.479       .  S
O27          C30   1.266       .  A
O27         Cd32   2.472       .  S
C28          O37   1.265       .  A
C28          O33   1.268       .  A
C28        C4257   1.482       .  S
O29          C35   1.266       .  A
O29         Cd32   2.488       .  S
C30          O38   1.266       .  A
C30        C4177   1.484       .  S
C31          O36   1.268       .  A
C31          O34   1.264       .  A
C31        C4193   1.481       .  S
Cd32         O39   2.465       .  S
Cd32         O38   2.480       .  S
Cd32         O37   2.452       .  S
Cd32         O33   2.490       .  S
Cd32         O36   2.488       .  S
Cd32         O34   2.444       .  S
C35          O39   1.265       .  A
C35        C4161   1.483       .  S
O40          C43   1.265       .  A
O40         Cd45   2.473       .  S
C41          O50   1.265       .  A
C41          O46   1.265       .  A
C41        C4129   1.478       .  S
O42          C48   1.267       .  A
O42         Cd45   2.519       .  S
C43          O51   1.267       .  A
C43        C4249   1.484       .  S
C44          O49   1.268       .  A
C44          O47   1.264       .  A
C44        C4201   1.482       .  S
Cd45         O52   2.455       .  S
Cd45         O51   2.489       .  S
Cd45         O50   2.451       .  S
Cd45         O46   2.475       .  S
Cd45         O49   2.500       .  S
Cd45         O47   2.442       .  S
C48          O52   1.264       .  A
C48        C4145   1.487       .  S
O53          C56   1.266       .  A
O53         Cd58   2.502       .  S
C54          O63   1.264       .  A
C54          O59   1.269       .  A
C54        C4089   1.481       .  S
O55          C61   1.266       .  A
O55         Cd58   2.480       .  S
C56          O64   1.264       .  A
C56        C4185   1.485       .  S
C57          O62   1.264       .  A
C57          O60   1.266       .  A
C57        C4097   1.483       .  S
Cd58         O65   2.456       .  S
Cd58         O64   2.471       .  S
Cd58         O63   2.430       .  S
Cd58         O59   2.499       .  S
Cd58         O62   2.468       .  S
Cd58         O60   2.491       .  S
C61          O65   1.265       .  A
C61        C4113   1.480       .  S
O66          C69   1.267       .  A
O66         Cd71   2.469       .  S
C67          O76   1.264       .  A
C67          O72   1.268       .  A
C67        C4137   1.477       .  S
O68          C74   1.269       .  A
O68         Cd71   2.503       .  S
C69          O77   1.267       .  A
C69        C4065   1.481       .  S
C70          O75   1.268       .  A
C70          O73   1.265       .  A
C70        C4057   1.484       .  S
Cd71         O78   2.429       .  S
Cd71         O77   2.462       .  S
Cd71         O76   2.426       .  S
Cd71         O72   2.492       .  S
Cd71         O75   2.490       .  S
Cd71         O73   2.462       .  S
C74          O78   1.264       .  A
C74        C4121   1.479       .  S
O79          C82   1.265       .  A
O79         Cd84   2.458       .  S
C80          O89   1.264       .  A
C80          O85   1.265       .  A
C80        C4009   1.476       .  S
O81          C87   1.267       .  A
O81         Cd84   2.481       .  S
C82          O90   1.267       .  A
C82        C4297   1.481       .  S
C83          O88   1.268       .  A
C83          O86   1.263       .  A
C83        C4033   1.482       .  S
Cd84         O91   2.466       .  S
Cd84         O90   2.478       .  S
Cd84         O89   2.451       .  S
Cd84         O85   2.469       .  S
Cd84         O88   2.506       .  S
Cd84         O86   2.443       .  S
C87          O91   1.265       .  A
C87        C4025   1.483       .  S
O92          C95   1.264       .  A
O92         Cd97   2.474       .  S
C93         O102   1.264       .  A
C93          O98   1.265       .  A
C93        C4217   1.478       .  S
O94         C100   1.264       .  A
O94         Cd97   2.458       .  S
C95         O103   1.265       .  A
C95        C3985   1.482       .  S
C96         O101   1.265       .  A
C96          O99   1.265       .  A
C96        C4041   1.480       .  S
Cd97        O104   2.482       .  S
Cd97        O103   2.482       .  S
Cd97        O102   2.466       .  S
Cd97         O98   2.468       .  S
Cd97        O101   2.472       .  S
Cd97         O99   2.464       .  S
C100        O104   1.266       .  A
C100       C3969   1.480       .  S
O105        C108   1.263       .  A
O105       Cd110   2.448       .  S
C106        O115   1.266       .  A
C106        O111   1.265       .  A
C106       C4081   1.480       .  S
O107        C113   1.264       .  A
O107       Cd110   2.452       .  S
C108        O116   1.265       .  A
C108       C3937   1.479       .  S
C109        O114   1.264       .  A
C109        O112   1.264       .  A
C109       C3961   1.479       .  S
Cd110       O117   2.492       .  S
Cd110       O116   2.491       .  S
Cd110       O115   2.462       .  S
Cd110       O111   2.476       .  S
Cd110       O114   2.480       .  S
Cd110       O112   2.461       .  S
C113        O117   1.266       .  A
C113       C3921   1.481       .  S
O118        C121   1.268       .  A
O118       Cd123   2.467       .  S
C119        O128   1.264       .  A
C119        O124   1.268       .  A
C119       C3889   1.479       .  S
O120        C126   1.268       .  A
O120       Cd123   2.498       .  S
C121        O129   1.267       .  A
C121       C4073   1.482       .  S
C122        O127   1.269       .  A
C122        O125   1.264       .  A
C122       C3953   1.479       .  S
Cd123       O130   2.442       .  S
Cd123       O129   2.463       .  S
Cd123       O128   2.431       .  S
Cd123       O124   2.500       .  S
Cd123       O127   2.501       .  S
Cd123       O125   2.426       .  S
C126        O130   1.265       .  A
C126       C3913   1.483       .  S
O131        C134   1.265       .  A
O131       Cd136   2.458       .  S
C132        O141   1.265       .  A
C132        O137   1.267       .  A
C132       C4001   1.478       .  S
O133        C139   1.268       .  A
O133       Cd136   2.500       .  S
C134        O142   1.266       .  A
C134       C3945   1.481       .  S
C135        O140   1.266       .  A
C135        O138   1.266       .  A
C135       C3857   1.485       .  S
Cd136       O143   2.437       .  S
Cd136       O142   2.490       .  S
Cd136       O141   2.440       .  S
Cd136       O137   2.482       .  S
Cd136       O140   2.483       .  S
Cd136       O138   2.480       .  S
C139        O143   1.263       .  A
C139       C3873   1.481       .  S
O144        C147   1.266       .  A
O144       Cd149   2.488       .  S
C145        O154   1.266       .  A
C145        O150   1.266       .  A
C145       C3993   1.481       .  S
O146        C152   1.268       .  A
O146       Cd149   2.506       .  S
C147        O155   1.264       .  A
C147       C3897   1.479       .  S
C148        O153   1.268       .  A
C148        O151   1.264       .  A
C148       C3881   1.481       .  S
Cd149       O156   2.449       .  S
Cd149       O155   2.437       .  S
Cd149       O154   2.463       .  S
Cd149       O150   2.472       .  S
Cd149       O153   2.501       .  S
Cd149       O151   2.437       .  S
C152        O156   1.265       .  A
C152       C3841   1.485       .  S
O157        C160   1.264       .  A
O157       Cd162   2.448       .  S
C158        O167   1.265       .  A
C158        O163   1.264       .  A
C158       C3785   1.476       .  S
O159        C165   1.266       .  A
O159       Cd162   2.488       .  S
C160        O168   1.267       .  A
C160       C3809   1.478       .  S
C161        O166   1.267       .  A
C161        O164   1.264       .  A
C161       C3825   1.481       .  S
Cd162       O169   2.467       .  S
Cd162       O168   2.474       .  S
Cd162       O167   2.453       .  S
Cd162       O163   2.464       .  S
Cd162       O166   2.495       .  S
Cd162       O164   2.445       .  S
C165        O169   1.264       .  A
C165       C3793   1.481       .  S
O170        C173   1.265       .  A
O170       Cd175   2.462       .  S
C171        O180   1.267       .  A
C171        O176   1.263       .  A
C171       C3761   1.483       .  S
O172        C178   1.267       .  A
O172       Cd175   2.507       .  S
C173        O181   1.266       .  A
C173       C3737   1.479       .  S
C174        O179   1.266       .  A
C174        O177   1.264       .  A
C174       C3745   1.482       .  S
Cd175       O182   2.442       .  S
Cd175       O181   2.465       .  S
Cd175       O180   2.511       .  S
Cd175       O176   2.447       .  S
Cd175       O179   2.491       .  S
Cd175       O177   2.455       .  S
C178        O182   1.263       .  A
C178       C3833   1.482       .  S
O183        C186   1.268       .  A
O183       Cd188   2.480       .  S
C184        O193   1.266       .  A
C184        O189   1.266       .  A
C184       C3817   1.477       .  S
O185        C191   1.268       .  A
O185       Cd188   2.484       .  S
C186        O194   1.266       .  A
C186       C3705   1.479       .  S
C187        O192   1.269       .  A
C187        O190   1.264       .  A
C187       C3713   1.483       .  S
Cd188       O195   2.440       .  S
Cd188       O194   2.435       .  S
Cd188       O193   2.460       .  S
Cd188       O189   2.458       .  S
Cd188       O192   2.511       .  S
Cd188       O190   2.433       .  S
C191        O195   1.264       .  A
C191       C3977   1.480       .  S
O196        C199   1.266       .  A
O196       Cd201   2.474       .  S
C197        O206   1.263       .  A
C197        O202   1.266       .  A
C197       C3729   1.479       .  S
O198        C204   1.267       .  A
O198       Cd201   2.492       .  S
C199        O207   1.268       .  A
C199       C3689   1.489       .  S
C200        O205   1.265       .  A
C200        O203   1.266       .  A
C200       C3665   1.485       .  S
Cd201       O208   2.444       .  S
Cd201       O207   2.509       .  S
Cd201       O206   2.454       .  S
Cd201       O202   2.488       .  S
Cd201       O205   2.489       .  S
Cd201       O203   2.478       .  S
C204        O208   1.264       .  A
C204       C3721   1.480       .  S
O209        C212   1.266       .  A
O209       Cd214   2.492       .  S
C210        O219   1.265       .  A
C210        O215   1.267       .  A
C210       C3601   1.487       .  S
O211        C217   1.266       .  A
O211       Cd214   2.476       .  S
C212        O220   1.264       .  A
C212       C3641   1.485       .  S
C213        O218   1.264       .  A
C213        O216   1.265       .  A
C213       C3617   1.483       .  S
Cd214       O221   2.460       .  S
Cd214       O220   2.480       .  S
Cd214       O219   2.469       .  S
Cd214       O215   2.502       .  S
Cd214       O218   2.476       .  S
Cd214       O216   2.484       .  S
C217        O221   1.266       .  A
C217       C3649   1.481       .  S
O222        C225   1.265       .  A
O222       Cd227   2.452       .  S
C223        O232   1.264       .  A
C223        O228   1.266       .  A
C223       C3553   1.479       .  S
O224        C230   1.268       .  A
O224       Cd227   2.499       .  S
C225        O233   1.268       .  A
C225       C3593   1.481       .  S
C226        O231   1.267       .  A
C226        O229   1.265       .  A
C226       C3569   1.484       .  S
Cd227       O234   2.427       .  S
Cd227       O233   2.481       .  S
Cd227       O232   2.455       .  S
Cd227       O228   2.473       .  S
Cd227       O231   2.501       .  S
Cd227       O229   2.449       .  S
C230        O234   1.263       .  A
C230       C3657   1.479       .  S
O235        C238   1.267       .  A
O235       Cd240   2.501       .  S
C236        O245   1.264       .  A
C236        O241   1.269       .  A
C236       C3609   1.488       .  S
O237        C243   1.265       .  A
O237       Cd240   2.463       .  S
C238        O246   1.265       .  A
C238       C3681   1.488       .  S
C239        O244   1.266       .  A
C239        O242   1.264       .  A
C239       C3545   1.477       .  S
Cd240       O247   2.482       .  S
Cd240       O246   2.479       .  S
Cd240       O245   2.448       .  S
Cd240       O241   2.522       .  S
Cd240       O244   2.486       .  S
Cd240       O242   2.437       .  S
C243        O247   1.267       .  A
C243       C3521   1.482       .  S
O248        C251   1.267       .  A
O248       Cd253   2.506       .  S
C249        O258   1.265       .  A
C249        O254   1.268       .  A
C249       C3585   1.481       .  S
O250        C256   1.266       .  A
O250       Cd253   2.475       .  S
C251        O259   1.263       .  A
C251       C3697   1.479       .  S
C252        O257   1.266       .  A
C252        O255   1.267       .  A
C252       C4233   1.480       .  S
Cd253       O260   2.448       .  S
Cd253       O259   2.440       .  S
Cd253       O258   2.451       .  S
Cd253       O254   2.477       .  S
Cd253       O257   2.463       .  S
Cd253       O255   2.468       .  S
C256        O260   1.264       .  A
C256       C3537   1.477       .  S
O261        C264   1.267       .  A
O261       Cd266   2.481       .  S
C262        O271   1.266       .  A
C262        O267   1.265       .  A
C262       C3633   1.483       .  S
O263        C269   1.268       .  A
O263       Cd266   2.504       .  S
C264        O272   1.265       .  A
C264       C3497   1.482       .  S
C265        O270   1.266       .  A
C265        O268   1.264       .  A
C265       C4105   1.480       .  S
Cd266       O273   2.413       .  S
Cd266       O272   2.464       .  S
Cd266       O271   2.488       .  S
Cd266       O267   2.459       .  S
Cd266       O270   2.477       .  S
Cd266       O268   2.456       .  S
C269        O273   1.264       .  A
C269       C3513   1.479       .  S
O274        C277   1.267       .  A
O274       Cd279   2.463       .  S
C275        O284   1.268       .  A
C275        O280   1.266       .  A
C275       C3473   1.485       .  S
O276        C282   1.270       .  A
O276       Cd279   2.513       .  S
C277        O285   1.265       .  A
C277       C3561   1.479       .  S
C278        O283   1.269       .  A
C278        O281   1.265       .  A
C278       C3457   1.484       .  S
Cd279       O286   2.400       .  S
Cd279       O285   2.466       .  S
Cd279       O284   2.493       .  S
Cd279       O280   2.459       .  S
Cd279       O283   2.495       .  S
Cd279       O281   2.448       .  S
C282        O286   1.263       .  A
C282       C3505   1.479       .  S
O287        C290   1.266       .  A
O287       Cd292   2.466       .  S
C288        O297   1.265       .  A
C288        O293   1.267       .  A
C288       C3489   1.482       .  S
O289        C295   1.269       .  A
O289       Cd292   2.509       .  S
C290        O298   1.266       .  A
C290       C3769   1.483       .  S
C291        O296   1.267       .  A
C291        O294   1.265       .  A
C291       C3929   1.482       .  S
Cd292       O299   2.414       .  S
Cd292       O298   2.482       .  S
Cd292       O297   2.460       .  S
Cd292       O293   2.483       .  S
Cd292       O296   2.485       .  S
Cd292       O294   2.459       .  S
C295        O299   1.264       .  A
C295       C3441   1.479       .  S
O300        C303   1.265       .  A
O300       Cd305   2.483       .  S
C301        O310   1.265       .  A
C301        O306   1.268       .  A
C301       C3777   1.478       .  S
O302        C308   1.268       .  A
O302       Cd305   2.510       .  S
C303        O311   1.266       .  A
C303       C3481   1.486       .  S
C304        O309   1.266       .  A
C304        O307   1.266       .  A
C304       C3425   1.483       .  S
Cd305       O312   2.415       .  S
Cd305       O311   2.490       .  S
Cd305       O310   2.441       .  S
Cd305       O306   2.479       .  S
Cd305       O309   2.477       .  S
Cd305       O307   2.475       .  S
C308        O312   1.263       .  A
C308       C3449   1.479       .  S
O313        C316   1.265       .  A
O313       Cd318   2.477       .  S
C314        O323   1.267       .  A
C314        O319   1.265       .  A
C314       C3393   1.480       .  S
O315        C321   1.265       .  A
O315       Cd318   2.469       .  S
C316        O324   1.264       .  A
C316       C3361   1.478       .  S
C317        O322   1.266       .  A
C317        O320   1.264       .  A
C317       C3385   1.481       .  S
Cd318       O325   2.475       .  S
Cd318       O324   2.452       .  S
Cd318       O323   2.477       .  S
Cd318       O319   2.455       .  S
Cd318       O322   2.490       .  S
Cd318       O320   2.455       .  S
C321        O325   1.266       .  A
C321       C3409   1.481       .  S
O326        C329   1.263       .  A
O326       Cd331   2.450       .  S
C327        O336   1.266       .  A
C327        O332   1.266       .  A
C327       C3337   1.477       .  S
O328        C334   1.265       .  A
O328       Cd331   2.492       .  S
C329        O337   1.267       .  A
C329       C3345   1.484       .  S
C330        O335   1.263       .  A
C330        O333   1.267       .  A
C330       C3417   1.483       .  S
Cd331       O338   2.494       .  S
Cd331       O337   2.514       .  S
Cd331       O336   2.448       .  S
Cd331       O332   2.470       .  S
Cd331       O335   2.464       .  S
Cd331       O333   2.500       .  S
C334        O338   1.265       .  A
C334       C3849   1.488       .  S
O339        C342   1.265       .  A
O339       Cd344   2.478       .  S
C340        O349   1.266       .  A
C340        O345   1.268       .  A
C340       C3369   1.479       .  S
O341        C347   1.268       .  A
O341       Cd344   2.506       .  S
C342        O350   1.265       .  A
C342       C3297   1.480       .  S
C343        O348   1.267       .  A
C343        O346   1.264       .  A
C343       C3281   1.482       .  S
Cd344       O351   2.440       .  S
Cd344       O350   2.463       .  S
Cd344       O349   2.445       .  S
Cd344       O345   2.479       .  S
Cd344       O348   2.488       .  S
Cd344       O346   2.457       .  S
C347        O351   1.264       .  A
C347       C3321   1.483       .  S
O352        C355   1.267       .  A
O352       Cd357   2.461       .  S
C353        O362   1.264       .  A
C353        O358   1.267       .  A
C353       C3249   1.480       .  S
O354        C360   1.270       .  A
O354       Cd357   2.508       .  S
C355        O363   1.267       .  A
C355       C3353   1.483       .  S
C356        O361   1.268       .  A
C356        O359   1.264       .  A
C356       C3265   1.483       .  S
Cd357       O364   2.431       .  S
Cd357       O363   2.474       .  S
Cd357       O362   2.440       .  S
Cd357       O358   2.490       .  S
Cd357       O361   2.493       .  S
Cd357       O359   2.456       .  S
C360        O364   1.264       .  A
C360       C3313   1.483       .  S
O365        C368   1.266       .  A
O365       Cd370   2.475       .  S
C366        O375   1.265       .  A
C366        O371   1.267       .  A
C366       C3209   1.486       .  S
O367        C373   1.266       .  A
O367       Cd370   2.485       .  S
C368        O376   1.265       .  A
C368       C3401   1.481       .  S
C369        O374   1.266       .  A
C369        O372   1.265       .  A
C369       C3217   1.480       .  S
Cd370       O377   2.468       .  S
Cd370       O376   2.468       .  S
Cd370       O375   2.454       .  S
Cd370       O371   2.511       .  S
Cd370       O374   2.473       .  S
Cd370       O372   2.462       .  S
C373        O377   1.265       .  A
C373       C3241   1.483       .  S
O378        C381   1.266       .  A
O378       Cd383   2.463       .  S
C379        O388   1.264       .  A
C379        O384   1.267       .  A
C379       C3329   1.476       .  S
O380        C386   1.269       .  A
O380       Cd383   2.497       .  S
C381        O389   1.267       .  A
C381       C3185   1.483       .  S
C382        O387   1.267       .  A
C382        O385   1.265       .  A
C382       C3905   1.481       .  S
Cd383       O390   2.429       .  S
Cd383       O389   2.476       .  S
Cd383       O388   2.427       .  S
Cd383       O384   2.480       .  S
Cd383       O387   2.480       .  S
Cd383       O385   2.450       .  S
C386        O390   1.264       .  A
C386       C3233   1.480       .  S
O391        C394   1.268       .  A
O391       Cd396   2.507       .  S
C392        O401   1.266       .  A
C392        O397   1.266       .  A
C392       C3153   1.487       .  S
O393        C399   1.266       .  A
O393       Cd396   2.497       .  S
C394        O402   1.265       .  A
C394       C3201   1.486       .  S
C395        O400   1.266       .  A
C395        O398   1.266       .  A
C395       C3137   1.487       .  S
Cd396       O403   2.461       .  S
Cd396       O402   2.456       .  S
Cd396       O401   2.490       .  S
Cd396       O397   2.490       .  S
Cd396       O400   2.484       .  S
Cd396       O398   2.487       .  S
C399        O403   1.264       .  A
C399       C3169   1.483       .  S
O404        C407   1.268       .  A
O404       Cd409   2.495       .  S
C405        O414   1.263       .  A
C405        O410   1.268       .  A
C405       C3113   1.479       .  S
O406        C412   1.267       .  A
O406       Cd409   2.468       .  S
C407        O415   1.266       .  A
C407       C3193   1.485       .  S
C408        O413   1.268       .  A
C408        O411   1.264       .  A
C408       C3177   1.480       .  S
Cd409       O416   2.478       .  S
Cd409       O415   2.460       .  S
Cd409       O414   2.443       .  S
Cd409       O410   2.488       .  S
Cd409       O413   2.499       .  S
Cd409       O411   2.437       .  S
C412        O416   1.266       .  A
C412       C3129   1.484       .  S
O417        C420   1.264       .  A
O417       Cd422   2.456       .  S
C418        O427   1.265       .  A
C418        O423   1.264       .  A
C418       C3081   1.477       .  S
O419        C425   1.267       .  A
O419       Cd422   2.503       .  S
C420        O428   1.268       .  A
C420       C3161   1.485       .  S
C421        O426   1.266       .  A
C421        O424   1.265       .  A
C421       C4169   1.484       .  S
Cd422       O429   2.439       .  S
Cd422       O428   2.501       .  S
Cd422       O427   2.465       .  S
Cd422       O423   2.468       .  S
Cd422       O426   2.494       .  S
Cd422       O424   2.473       .  S
C425        O429   1.263       .  A
C425       C3089   1.480       .  S
O430        C433   1.264       .  A
O430       Cd435   2.462       .  S
C431        O440   1.265       .  A
C431        O436   1.266       .  A
C431       C3105   1.479       .  S
O432        C438   1.267       .  A
O432       Cd435   2.496       .  S
C433        O441   1.266       .  A
C433       C3057   1.483       .  S
C434        O439   1.266       .  A
C434        O437   1.266       .  A
C434       C3041   1.486       .  S
Cd435       O442   2.442       .  S
Cd435       O441   2.491       .  S
Cd435       O440   2.462       .  S
Cd435       O436   2.472       .  S
Cd435       O439   2.494       .  S
Cd435       O437   2.477       .  S
C438        O442   1.263       .  A
C438       C3097   1.480       .  S
O443        C446   1.266       .  A
O443       Cd448   2.474       .  S
C444        O453   1.266       .  A
C444        O449   1.265       .  A
C444       C3305   1.478       .  S
O445        C451   1.268       .  A
O445       Cd448   2.484       .  S
C446        O454   1.265       .  A
C446       C3073   1.476       .  S
C447        O452   1.265       .  A
C447        O450   1.264       .  A
C447       C4281   1.481       .  S
Cd448       O455   2.450       .  S
Cd448       O454   2.435       .  S
Cd448       O453   2.467       .  S
Cd448       O449   2.458       .  S
Cd448       O452   2.475       .  S
Cd448       O450   2.475       .  S
C451        O455   1.265       .  A
C451       C3025   1.481       .  S
O456        C459   1.269       .  A
O456       Cd461   2.498       .  S
C457        O466   1.266       .  A
C457        O462   1.267       .  A
C457       C3065   1.485       .  S
O458        C464   1.268       .  A
O458       Cd461   2.486       .  S
C459        O467   1.264       .  A
C459       C3257   1.479       .  S
C460        O465   1.267       .  A
C460        O463   1.266       .  A
C460       C3017   1.485       .  S
Cd461       O468   2.447       .  S
Cd461       O467   2.425       .  S
Cd461       O466   2.465       .  S
Cd461       O462   2.491       .  S
Cd461       O465   2.494       .  S
Cd461       O463   2.465       .  S
C464        O468   1.264       .  A
C464       C3033   1.480       .  S
O469        C472   1.265       .  A
O469       Cd474   2.477       .  S
C470        O479   1.265       .  A
C470        O475   1.264       .  A
C470       C2977   1.483       .  S
O471        C477   1.264       .  A
O471       Cd474   2.473       .  S
C472        O480   1.266       .  A
C472       C2969   1.483       .  S
C473        O478   1.267       .  A
C473        O476   1.265       .  A
C473       C2993   1.484       .  S
Cd474       O481   2.507       .  S
Cd474       O480   2.482       .  S
Cd474       O479   2.496       .  S
Cd474       O475   2.465       .  S
Cd474       O478   2.491       .  S
Cd474       O476   2.463       .  S
C477        O481   1.265       .  A
C477       C3145   1.486       .  S
O482        C485   1.266       .  A
O482       Cd487   2.456       .  S
C483        O492   1.265       .  A
C483        O488   1.266       .  A
C483       C2913   1.480       .  S
O484        C490   1.269       .  A
O484       Cd487   2.515       .  S
C485        O493   1.268       .  A
C485       C2945   1.482       .  S
C486        O491   1.269       .  A
C486        O489   1.265       .  A
C486       C2937   1.487       .  S
Cd487       O494   2.443       .  S
Cd487       O493   2.483       .  S
Cd487       O492   2.461       .  S
Cd487       O488   2.476       .  S
Cd487       O491   2.506       .  S
Cd487       O489   2.461       .  S
C490        O494   1.263       .  A
C490       C3001   1.484       .  S
O495        C498   1.269       .  A
O495       Cd500   2.506       .  S
C496        O505   1.264       .  A
C496        O501   1.267       .  A
C496       C2881   1.483       .  S
O497        C503   1.266       .  A
O497       Cd500   2.475       .  S
C498        O506   1.263       .  A
C498       C2961   1.481       .  S
C499        O504   1.265       .  A
C499        O502   1.266       .  A
C499       C3225   1.480       .  S
Cd500       O507   2.442       .  S
Cd500       O506   2.425       .  S
Cd500       O505   2.458       .  S
Cd500       O501   2.497       .  S
Cd500       O504   2.457       .  S
Cd500       O502   2.477       .  S
C503        O507   1.266       .  A
C503       C2897   1.478       .  S
O508        C511   1.269       .  A
O508       Cd513   2.505       .  S
C509        O518   1.266       .  A
C509        O514   1.269       .  A
C509       C2953   1.482       .  S
O510        C516   1.269       .  A
O510       Cd513   2.497       .  S
C511        O519   1.263       .  A
C511       C2865   1.478       .  S
C512        O517   1.268       .  A
C512        O515   1.267       .  A
C512       C3433   1.481       .  S
Cd513       O520   2.423       .  S
Cd513       O519   2.406       .  S
Cd513       O518   2.448       .  S
Cd513       O514   2.478       .  S
Cd513       O517   2.473       .  S
Cd513       O515   2.449       .  S
C516        O520   1.264       .  A
C516       C2905   1.479       .  S
O521        C524   1.267       .  A
O521       Cd526   2.468       .  S
C522        O531   1.263       .  A
C522        O527   1.267       .  A
C522       C2817   1.477       .  S
O523        C529   1.265       .  A
O523       Cd526   2.444       .  S
C524        O532   1.267       .  A
C524       C2889   1.481       .  S
C525        O530   1.267       .  A
C525        O528   1.264       .  A
C525       C2833   1.482       .  S
Cd526       O533   2.501       .  S
Cd526       O532   2.455       .  S
Cd526       O531   2.436       .  S
Cd526       O527   2.486       .  S
Cd526       O530   2.482       .  S
Cd526       O528   2.469       .  S
C529        O533   1.269       .  A
C529       C2849   1.482       .  S
O534        C537   1.263       .  A
O534       Cd539   2.442       .  S
C535        O544   1.266       .  A
C535        O540   1.265       .  A
C535       C2873   1.479       .  S
O536        C542   1.264       .  A
O536       Cd539   2.460       .  S
C537        O545   1.266       .  A
C537       C2809   1.480       .  S
C538        O543   1.263       .  A
C538        O541   1.265       .  A
C538       C3801   1.482       .  S
Cd539       O546   2.489       .  S
Cd539       O545   2.499       .  S
Cd539       O544   2.442       .  S
Cd539       O540   2.486       .  S
Cd539       O543   2.475       .  S
Cd539       O541   2.485       .  S
C542        O546   1.266       .  A
C542       C2857   1.482       .  S
O547        C550   1.266       .  A
O547       Cd552   2.488       .  S
C548        O557   1.267       .  A
C548        O553   1.265       .  A
C548       C2985   1.485       .  S
O549        C555   1.267       .  A
O549       Cd552   2.507       .  S
C550        O558   1.264       .  A
C550       C2769   1.481       .  S
C551        O556   1.266       .  A
C551        O554   1.265       .  A
C551       C3625   1.484       .  S
Cd552       O559   2.457       .  S
Cd552       O558   2.456       .  S
Cd552       O557   2.497       .  S
Cd552       O553   2.470       .  S
Cd552       O556   2.477       .  S
Cd552       O554   2.483       .  S
C555        O559   1.264       .  A
C555       C2793   1.484       .  S
O560        C563   1.267       .  A
O560       Cd565   2.475       .  S
C561        O570   1.265       .  A
C561        O566   1.264       .  A
C561       C2753   1.484       .  S
O562        C568   1.266       .  A
O562       Cd565   2.505       .  S
C563        O571   1.266       .  A
C563       C2921   1.481       .  S
C564        O569   1.266       .  A
C564        O567   1.266       .  A
C564       C2737   1.481       .  S
Cd565       O572   2.451       .  S
Cd565       O571   2.465       .  S
Cd565       O570   2.489       .  S
Cd565       O566   2.481       .  S
Cd565       O569   2.478       .  S
Cd565       O567   2.463       .  S
C568        O572   1.263       .  A
C568       C2785   1.483       .  S
O573        C576   1.266       .  A
O573       Cd578   2.444       .  S
C574        O583   1.264       .  A
C574        O579   1.265       .  A
C574       C2825   1.477       .  S
O575        C581   1.266       .  A
O575       Cd578   2.478       .  S
C576        O584   1.268       .  A
C576       C2705   1.478       .  S
C577        O582   1.268       .  A
C577        O580   1.264       .  A
C577       C2721   1.479       .  S
Cd578       O585   2.473       .  S
Cd578       O584   2.468       .  S
Cd578       O583   2.448       .  S
Cd578       O579   2.473       .  S
Cd578       O582   2.495       .  S
Cd578       O580   2.438       .  S
C581        O585   1.265       .  A
C581       C2689   1.482       .  S
O586        C589   1.267       .  A
O586       Cd591   2.482       .  S
C587        O596   1.265       .  A
C587        O592   1.264       .  A
C587       C2801   1.482       .  S
O588        C594   1.266       .  A
O588       Cd591   2.477       .  S
C589        O597   1.264       .  A
C589       C2673   1.478       .  S
C590        O595   1.263       .  A
C590        O593   1.266       .  A
C590       C3273   1.482       .  S
Cd591       O598   2.447       .  S
Cd591       O597   2.441       .  S
Cd591       O596   2.494       .  S
Cd591       O592   2.464       .  S
Cd591       O595   2.452       .  S
Cd591       O593   2.499       .  S
C594        O598   1.264       .  A
C594       C2729   1.478       .  S
O599        C602   1.266       .  A
O599       Cd604   2.479       .  S
C600        O609   1.264       .  A
C600        O605   1.268       .  A
C600       C2777   1.483       .  S
O601        C607   1.267       .  A
O601       Cd604   2.475       .  S
C602        O610   1.264       .  A
C602       C2713   1.480       .  S
C603        O608   1.265       .  A
C603        O606   1.265       .  A
C603       C3529   1.481       .  S
Cd604       O611   2.450       .  S
Cd604       O610   2.461       .  S
Cd604       O609   2.435       .  S
Cd604       O605   2.509       .  S
Cd604       O608   2.477       .  S
Cd604       O606   2.466       .  S
C607        O611   1.266       .  A
C607       C2665   1.479       .  S
O612        C615   1.267       .  A
O612       Cd617   2.461       .  S
C613        O622   1.264       .  A
C613        O618   1.267       .  A
C613       C2681   1.476       .  S
O614        C620   1.270       .  A
O614       Cd617   2.510       .  S
C615        O623   1.268       .  A
C615       C2761   1.484       .  S
C616        O621   1.269       .  A
C616        O619   1.265       .  A
C616       C3009   1.484       .  S
Cd617       O624   2.426       .  S
Cd617       O623   2.479       .  S
Cd617       O622   2.442       .  S
Cd617       O618   2.469       .  S
Cd617       O621   2.510       .  S
Cd617       O619   2.436       .  S
C620        O624   1.263       .  A
C620       C2657   1.480       .  S
O625        C628   1.268       .  A
O625       Cd630   2.494       .  S
C626        O635   1.263       .  A
C626        O631   1.268       .  A
C626       C2609   1.485       .  S
O627        C633   1.267       .  A
O627       Cd630   2.507       .  S
C628        O636   1.266       .  A
C628       C2633   1.485       .  S
C629        O634   1.267       .  A
C629        O632   1.266       .  A
C629       C4017   1.483       .  S
Cd630       O637   2.441       .  S
Cd630       O636   2.466       .  S
Cd630       O635   2.437       .  S
Cd630       O631   2.524       .  S
Cd630       O634   2.479       .  S
Cd630       O632   2.464       .  S
C633        O637   1.264       .  A
C633       C2641   1.481       .  S
O638        C641   1.265       .  A
O638       Cd643   2.477       .  S
C639        O648   1.266       .  A
C639        O644   1.267       .  A
C639       C2561   1.482       .  S
O640        C646   1.267       .  A
O640       Cd643   2.503       .  S
C641        O649   1.265       .  A
C641       C2593   1.483       .  S
C642        O647   1.266       .  A
C642        O645   1.266       .  A
C642       C2577   1.485       .  S
Cd643       O650   2.431       .  S
Cd643       O649   2.480       .  S
Cd643       O648   2.450       .  S
Cd643       O644   2.493       .  S
Cd643       O647   2.491       .  S
Cd643       O645   2.477       .  S
C646        O650   1.263       .  A
C646       C2649   1.480       .  S
O651        C654   1.267       .  A
O651       Cd656   2.496       .  S
C652        O661   1.265       .  A
C652        O657   1.266       .  A
C652       C2529   1.486       .  S
O653        C659   1.267       .  A
O653       Cd656   2.508       .  S
C654        O662   1.265       .  A
C654       C2617   1.483       .  S
C655        O660   1.266       .  A
C655        O658   1.266       .  A
C655       C3865   1.486       .  S
Cd656       O663   2.462       .  S
Cd656       O662   2.450       .  S
Cd656       O661   2.478       .  S
Cd656       O657   2.495       .  S
Cd656       O660   2.479       .  S
Cd656       O658   2.491       .  S
C659        O663   1.264       .  A
C659       C2545   1.485       .  S
O664        C667   1.265       .  A
O664       Cd669   2.465       .  S
C665        O674   1.264       .  A
C665        O670   1.265       .  A
C665       C2497   1.481       .  S
O666        C672   1.265       .  A
O666       Cd669   2.487       .  S
C667        O675   1.267       .  A
C667       C2601   1.483       .  S
C668        O673   1.267       .  A
C668        O671   1.264       .  A
C668       C2553   1.484       .  S
Cd669       O676   2.478       .  S
Cd669       O675   2.488       .  S
Cd669       O674   2.465       .  S
Cd669       O670   2.485       .  S
Cd669       O673   2.501       .  S
Cd669       O671   2.450       .  S
C672        O676   1.265       .  A
C672       C2513   1.484       .  S
O677        C680   1.266       .  A
O677       Cd682   2.448       .  S
C678        O687   1.264       .  A
C678        O683   1.267       .  A
C678       C2505   1.479       .  S
O679        C685   1.269       .  A
O679       Cd682   2.500       .  S
C680        O688   1.267       .  A
C680       C2473   1.482       .  S
C681        O686   1.267       .  A
C681        O684   1.265       .  A
C681       C2457   1.480       .  S
Cd682       O689   2.429       .  S
Cd682       O688   2.489       .  S
Cd682       O687   2.448       .  S
Cd682       O683   2.480       .  S
Cd682       O686   2.483       .  S
Cd682       O684   2.451       .  S
C685        O689   1.263       .  A
C685       C2481   1.481       .  S
O690        C693   1.264       .  A
O690       Cd695   2.476       .  S
C691        O700   1.264       .  A
C691        O696   1.266       .  A
C691       C2417   1.476       .  S
O692        C698   1.266       .  A
O692       Cd695   2.472       .  S
C693        O701   1.266       .  A
C693       C2537   1.485       .  S
C694        O699   1.264       .  A
C694        O697   1.265       .  A
C694       C2433   1.483       .  S
Cd695       O702   2.470       .  S
Cd695       O701   2.492       .  S
Cd695       O700   2.437       .  S
Cd695       O696   2.477       .  S
Cd695       O699   2.468       .  S
Cd695       O697   2.493       .  S
C698        O702   1.266       .  A
C698       C2489   1.481       .  S
O703        C706   1.265       .  A
O703       Cd708   2.492       .  S
C704        O713   1.265       .  A
C704        O709   1.263       .  A
C704       C2465   1.484       .  S
O705        C711   1.263       .  A
O705       Cd708   2.499       .  S
C706        O714   1.265       .  A
C706       C2385   1.483       .  S
C707        O712   1.265       .  A
C707        O710   1.268       .  A
C707       C4049   1.484       .  S
Cd708       O715   2.481       .  S
Cd708       O714   2.470       .  S
Cd708       O713   2.500       .  S
Cd708       O709   2.469       .  S
Cd708       O712   2.455       .  S
Cd708       O710   2.498       .  S
C711        O715   1.263       .  A
C711       C2401   1.484       .  S
O716        C719   1.268       .  A
O716       Cd721   2.479       .  S
C717        O726   1.264       .  A
C717        O722   1.268       .  A
C717       C2425   1.479       .  S
O718        C724   1.268       .  A
O718       Cd721   2.469       .  S
C719        O727   1.265       .  A
C719       C2377   1.479       .  S
C720        O725   1.269       .  A
C720        O723   1.265       .  A
C720       C2409   1.483       .  S
Cd721       O728   2.457       .  S
Cd721       O727   2.439       .  S
Cd721       O726   2.434       .  S
Cd721       O722   2.488       .  S
Cd721       O725   2.505       .  S
Cd721       O723   2.431       .  S
C724        O728   1.265       .  A
C724       C2361   1.480       .  S
O729        C732   1.265       .  A
O729       Cd734   2.490       .  S
C730        O739   1.268       .  A
C730        O735   1.266       .  A
C730       C2625   1.485       .  S
O731        C737   1.268       .  A
O731       Cd734   2.511       .  S
C732        O740   1.264       .  A
C732       C2305   1.479       .  S
C733        O738   1.267       .  A
C733        O736   1.265       .  A
C733       C2321   1.487       .  S
Cd734       O741   2.467       .  S
Cd734       O740   2.451       .  S
Cd734       O739   2.491       .  S
Cd734       O735   2.459       .  S
Cd734       O738   2.492       .  S
Cd734       O736   2.485       .  S
C737        O741   1.264       .  A
C737       C2337   1.487       .  S
O742        C745   1.267       .  A
O742       Cd747   2.493       .  S
C743        O752   1.266       .  A
C743        O748   1.266       .  A
C743       C2289   1.485       .  S
O744        C750   1.267       .  A
O744       Cd747   2.493       .  S
C745        O753   1.265       .  A
C745       C2569   1.482       .  S
C746        O751   1.266       .  A
C746        O749   1.265       .  A
C746       C2281   1.485       .  S
Cd747       O754   2.468       .  S
Cd747       O753   2.453       .  S
Cd747       O752   2.489       .  S
Cd747       O748   2.475       .  S
Cd747       O751   2.491       .  S
Cd747       O749   2.479       .  S
C750        O754   1.265       .  A
C750       C2345   1.485       .  S
O755        C758   1.264       .  A
O755       Cd760   2.456       .  S
C756        O765   1.265       .  A
C756        O761   1.265       .  A
C756       C2313   1.478       .  S
O757        C763   1.266       .  A
O757       Cd760   2.479       .  S
C758        O766   1.266       .  A
C758       C2369   1.479       .  S
C759        O764   1.264       .  A
C759        O762   1.265       .  A
C759       C2241   1.482       .  S
Cd760       O767   2.463       .  S
Cd760       O766   2.476       .  S
Cd760       O765   2.450       .  S
Cd760       O761   2.476       .  S
Cd760       O764   2.474       .  S
Cd760       O762   2.486       .  S
C763        O767   1.265       .  A
C763       C2257   1.481       .  S
O768        C771   1.267       .  A
O768       Cd773   2.485       .  S
C769        O778   1.263       .  A
C769        O774   1.267       .  A
C769       C2393   1.479       .  S
O770        C776   1.267       .  A
O770       Cd773   2.497       .  S
C771        O779   1.266       .  A
C771       C2297   1.485       .  S
C772        O777   1.267       .  A
C772        O775   1.267       .  A
C772       C4153   1.486       .  S
Cd773       O780   2.454       .  S
Cd773       O779   2.476       .  S
Cd773       O778   2.432       .  S
Cd773       O774   2.505       .  S
Cd773       O777   2.483       .  S
Cd773       O775   2.471       .  S
C776        O780   1.264       .  A
C776       C2265   1.482       .  S
O781        C784   1.266       .  A
O781       Cd786   2.482       .  S
C782        O791   1.264       .  A
C782        O787   1.267       .  A
C782       C2193   1.482       .  S
O783        C789   1.267       .  A
O783       Cd786   2.494       .  S
C784        O792   1.266       .  A
C784       C2209   1.483       .  S
C785        O790   1.266       .  A
C785        O788   1.266       .  A
C785       C3377   1.482       .  S
Cd786       O793   2.447       .  S
Cd786       O792   2.472       .  S
Cd786       O791   2.437       .  S
Cd786       O787   2.507       .  S
Cd786       O790   2.472       .  S
Cd786       O788   2.473       .  S
C789        O793   1.264       .  A
C789       C2233   1.482       .  S
O794        C797   1.268       .  A
O794       Cd799   2.484       .  S
C795        O804   1.265       .  A
C795        O800   1.266       .  A
C795       C2177   1.483       .  S
O796        C802   1.267       .  A
O796       Cd799   2.476       .  S
C797        O805   1.265       .  A
C797       C2161   1.478       .  S
C798        O803   1.267       .  A
C798        O801   1.263       .  A
C798       C2225   1.483       .  S
Cd799       O806   2.465       .  S
Cd799       O805   2.431       .  S
Cd799       O804   2.462       .  S
Cd799       O800   2.491       .  S
Cd799       O803   2.509       .  S
Cd799       O801   2.452       .  S
C802        O806   1.266       .  A
C802       C2521   1.483       .  S
O807        C810   1.268       .  A
O807       Cd812   2.501       .  S
C808        O817   1.264       .  A
C808        O813   1.266       .  A
C808       C2129   1.479       .  S
O809        C815   1.267       .  A
O809       Cd812   2.491       .  S
C810        O818   1.265       .  A
C810       C2201   1.482       .  S
C811        O816   1.266       .  A
C811        O814   1.265       .  A
C811       C3289   1.482       .  S
Cd812       O819   2.449       .  S
Cd812       O818   2.434       .  S
Cd812       O817   2.463       .  S
Cd812       O813   2.471       .  S
Cd812       O816   2.475       .  S
Cd812       O814   2.473       .  S
C815        O819   1.265       .  A
C815       C2145   1.482       .  S
O820        C823   1.266       .  A
O820       Cd825   2.485       .  S
C821        O830   1.267       .  A
C821        O826   1.265       .  A
C821       C2185   1.483       .  S
O822        C828   1.267       .  A
O822       Cd825   2.482       .  S
C823        O831   1.263       .  A
C823       C2097   1.480       .  S
C824        O829   1.264       .  A
C824        O827   1.265       .  A
C824       C2113   1.480       .  S
Cd825       O832   2.455       .  S
Cd825       O831   2.457       .  S
Cd825       O830   2.484       .  S
Cd825       O826   2.471       .  S
Cd825       O829   2.468       .  S
Cd825       O827   2.475       .  S
C828        O832   1.265       .  A
C828       C2153   1.481       .  S
O833        C836   1.264       .  A
O833       Cd838   2.452       .  S
C834        O843   1.265       .  A
C834        O839   1.264       .  A
C834       C2073   1.476       .  S
O835        C841   1.268       .  A
O835       Cd838   2.493       .  S
C836        O844   1.267       .  A
C836       C2137   1.480       .  S
C837        O842   1.265       .  A
C837        O840   1.264       .  A
C837       C2329   1.486       .  S
Cd838       O845   2.470       .  S
Cd838       O844   2.483       .  S
Cd838       O843   2.447       .  S
Cd838       O839   2.474       .  S
Cd838       O842   2.502       .  S
Cd838       O840   2.480       .  S
C841        O845   1.265       .  A
C841       C2081   1.485       .  S
O846        C849   1.265       .  A
O846       Cd851   2.491       .  S
C847        O856   1.264       .  A
C847        O852   1.265       .  A
C847       C2105   1.481       .  S
O848        C854   1.267       .  A
O848       Cd851   2.499       .  S
C849        O857   1.267       .  A
C849       C2057   1.486       .  S
C850        O855   1.265       .  A
C850        O853   1.265       .  A
C850       C2041   1.488       .  S
Cd851       O858   2.470       .  S
Cd851       O857   2.483       .  S
Cd851       O856   2.467       .  S
Cd851       O852   2.485       .  S
Cd851       O855   2.490       .  S
Cd851       O853   2.496       .  S
C854        O858   1.266       .  A
C854       C2089   1.486       .  S
O859        C862   1.266       .  A
O859       Cd864   2.463       .  S
C860        O869   1.266       .  A
C860        O865   1.264       .  A
C860       C2217   1.484       .  S
O861        C867   1.267       .  A
O861       Cd864   2.483       .  S
C862        O870   1.265       .  A
C862       C1993   1.478       .  S
C863        O868   1.264       .  A
C863        O866   1.265       .  A
C863       C2001   1.482       .  S
Cd864       O871   2.441       .  S
Cd864       O870   2.458       .  S
Cd864       O869   2.491       .  S
Cd864       O865   2.471       .  S
Cd864       O868   2.476       .  S
Cd864       O866   2.479       .  S
C867        O871   1.264       .  A
C867       C2017   1.478       .  S
O872        C875   1.267       .  A
O872       Cd877   2.460       .  S
C873        O882   1.263       .  A
C873        O878   1.267       .  A
C873       C2169   1.478       .  S
O874        C880   1.267       .  A
O874       Cd877   2.473       .  S
C875        O883   1.267       .  A
C875       C1969   1.482       .  S
C876        O881   1.267       .  A
C876        O879   1.263       .  A
C876       C2025   1.477       .  S
Cd877       O884   2.449       .  S
Cd877       O883   2.472       .  S
Cd877       O882   2.438       .  S
Cd877       O878   2.496       .  S
Cd877       O881   2.493       .  S
Cd877       O879   2.427       .  S
C880        O884   1.266       .  A
C880       C2449   1.479       .  S
O885        C888   1.269       .  A
O885       Cd890   2.486       .  S
C886        O895   1.267       .  A
C886        O891   1.268       .  A
C886       C1937   1.478       .  S
O887        C893   1.270       .  A
O887       Cd890   2.492       .  S
C888        O896   1.263       .  A
C888       C2065   1.475       .  S
C889        O894   1.269       .  A
C889        O892   1.266       .  A
C889       C2249   1.482       .  S
Cd890       O897   2.428       .  S
Cd890       O896   2.407       .  S
Cd890       O895   2.449       .  S
Cd890       O891   2.459       .  S
Cd890       O894   2.487       .  S
Cd890       O892   2.443       .  S
C893        O897   1.264       .  A
C893       C1953   1.479       .  S
O898        C901   1.266       .  A
O898       Cd903   2.476       .  S
C899        O908   1.265       .  A
C899        O904   1.265       .  A
C899       C2049   1.484       .  S
O900        C906   1.267       .  A
O900       Cd903   2.491       .  S
C901        O909   1.266       .  A
C901       C1921   1.482       .  S
C902        O907   1.265       .  A
C902        O905   1.265       .  A
C902       C3049   1.487       .  S
Cd903       O910   2.460       .  S
Cd903       O909   2.472       .  S
Cd903       O908   2.467       .  S
Cd903       O904   2.501       .  S
Cd903       O907   2.496       .  S
Cd903       O905   2.492       .  S
C906        O910   1.265       .  A
C906       C1961   1.481       .  S
O911        C914   1.267       .  A
O911       Cd916   2.459       .  S
C912        O921   1.263       .  A
C912        O917   1.267       .  A
C912       C1985   1.478       .  S
O913        C919   1.269       .  A
O913       Cd916   2.483       .  S
C914        O922   1.266       .  A
C914       C1945   1.478       .  S
C915        O920   1.267       .  A
C915        O918   1.264       .  A
C915       C1889   1.480       .  S
Cd916       O923   2.429       .  S
Cd916       O922   2.455       .  S
Cd916       O921   2.443       .  S
Cd916       O917   2.481       .  S
Cd916       O920   2.478       .  S
Cd916       O918   2.458       .  S
C919        O923   1.265       .  A
C919       C1905   1.478       .  S
O924        C927   1.266       .  A
O924       Cd929   2.470       .  S
C925        O934   1.264       .  A
C925        O930   1.267       .  A
C925       C1929   1.481       .  S
O926        C932   1.268       .  A
O926       Cd929   2.489       .  S
C927        O935   1.266       .  A
C927       C1977   1.485       .  S
C928        O933   1.265       .  A
C928        O931   1.265       .  A
C928       C3121   1.484       .  S
Cd929       O936   2.437       .  S
Cd929       O935   2.494       .  S
Cd929       O934   2.450       .  S
Cd929       O930   2.491       .  S
Cd929       O933   2.480       .  S
Cd929       O931   2.480       .  S
C932        O936   1.264       .  A
C932       C1913   1.479       .  S
O937        C940   1.265       .  A
O937       Cd942   2.458       .  S
C938        O947   1.264       .  A
C938        O943   1.266       .  A
C938       C1841   1.474       .  S
O939        C945   1.268       .  A
O939       Cd942   2.493       .  S
C940        O948   1.268       .  A
C940       C1857   1.482       .  S
C941        O946   1.267       .  A
C941        O944   1.266       .  A
C941       C2273   1.485       .  S
Cd942       O949   2.444       .  S
Cd942       O948   2.482       .  S
Cd942       O947   2.437       .  S
Cd942       O943   2.465       .  S
Cd942       O946   2.481       .  S
Cd942       O944   2.476       .  S
C945        O949   1.263       .  A
C945       C1873   1.480       .  S
O950        C953   1.264       .  A
O950       Cd955   2.466       .  S
C951        O960   1.265       .  A
C951        O956   1.265       .  A
C951       C1793   1.479       .  S
O952        C958   1.267       .  A
O952       Cd955   2.471       .  S
C953        O961   1.266       .  A
C953       C1833   1.488       .  S
C954        O959   1.263       .  A
C954        O957   1.265       .  A
C954       C1809   1.486       .  S
Cd955       O962   2.464       .  S
Cd955       O961   2.515       .  S
Cd955       O960   2.466       .  S
Cd955       O956   2.478       .  S
Cd955       O959   2.486       .  S
Cd955       O957   2.503       .  S
C958        O962   1.265       .  A
C958       C1881   1.480       .  S
O963        C966   1.268       .  A
O963       Cd968   2.468       .  S
C964        O973   1.264       .  A
C964        O969   1.269       .  A
C964       C1769   1.480       .  S
O965        C971   1.269       .  A
O965       Cd968   2.509       .  S
C966        O974   1.267       .  A
C966       C1865   1.481       .  S
C967        O972   1.270       .  A
C967        O970   1.264       .  A
C967       C1777   1.481       .  S
Cd968       O975   2.434       .  S
Cd968       O974   2.457       .  S
Cd968       O973   2.419       .  S
Cd968       O969   2.502       .  S
Cd968       O972   2.501       .  S
Cd968       O970   2.424       .  S
C971        O975   1.265       .  A
C971       C3577   1.484       .  S
O976        C979   1.267       .  A
O976       Cd981   2.504       .  S
C977        O986   1.267       .  A
C977        O982   1.266       .  A
C977       C1745   1.483       .  S
O978        C984   1.266       .  A
O978       Cd981   2.490       .  S
C979        O987   1.263       .  A
C979       C1801   1.481       .  S
C980        O985   1.266       .  A
C980        O983   1.266       .  A
C980       C1729   1.482       .  S
Cd981       O988   2.448       .  S
Cd981       O987   2.440       .  S
Cd981       O986   2.488       .  S
Cd981       O982   2.464       .  S
Cd981       O985   2.470       .  S
Cd981       O983   2.472       .  S
C984        O988   1.264       .  A
C984       C1785   1.481       .  S
O989        C992   1.264       .  A
O989       Cd994   2.467       .  S
C990        O999   1.265       .  A
C990        O995   1.265       .  A
C990       C1761   1.481       .  S
O991        C997   1.266       .  A
O991       Cd994   2.494       .  S
C992       O1000   1.266       .  A
C992       C1705   1.485       .  S
C993        O998   1.265       .  A
C993        O996   1.266       .  A
C993       C3465   1.487       .  S
Cd994      O1001   2.465       .  S
Cd994      O1000   2.498       .  S
Cd994       O999   2.453       .  S
Cd994       O995   2.489       .  S
Cd994       O998   2.480       .  S
Cd994       O996   2.501       .  S
C997       O1001   1.264       .  A
C997       C1721   1.483       .  S
O1002      C1005   1.266       .  A
O1002     Cd1007   2.463       .  S
C1003      O1012   1.264       .  A
C1003      O1008   1.267       .  A
C1003      C1689   1.476       .  S
O1004      C1010   1.267       .  A
O1004     Cd1007   2.483       .  S
C1005      O1013   1.266       .  A
C1005      C1753   1.480       .  S
C1006      O1011   1.267       .  A
C1006      O1009   1.266       .  A
C1006      C2353   1.481       .  S
Cd1007     O1014   2.462       .  S
Cd1007     O1013   2.467       .  S
Cd1007     O1012   2.433       .  S
Cd1007     O1008   2.479       .  S
Cd1007     O1011   2.464       .  S
Cd1007     O1009   2.474       .  S
C1010      O1014   1.264       .  A
C1010      C1713   1.482       .  S
O1015      C1018   1.267       .  A
O1015     Cd1020   2.490       .  S
C1016      O1025   1.265       .  A
C1016      O1021   1.266       .  A
C1016      C1697   1.483       .  S
O1017      C1023   1.268       .  A
O1017     Cd1020   2.496       .  S
C1018      O1026   1.265       .  A
C1018      C1633   1.484       .  S
C1019      O1024   1.266       .  A
C1019      O1022   1.265       .  A
C1019      C1649   1.481       .  S
Cd1020     O1027   2.433       .  S
Cd1020     O1026   2.468       .  S
Cd1020     O1025   2.469       .  S
Cd1020     O1021   2.486       .  S
Cd1020     O1024   2.481       .  S
Cd1020     O1022   2.466       .  S
C1023      O1027   1.265       .  A
C1023      C1665   1.481       .  S
O1028      C1031   1.267       .  A
O1028     Cd1033   2.476       .  S
C1029      O1038   1.267       .  A
C1029      O1034   1.267       .  A
C1029      C1617   1.480       .  S
O1030      C1036   1.269       .  A
O1030     Cd1033   2.503       .  S
C1031      O1039   1.265       .  A
C1031      C1681   1.477       .  S
C1032      O1037   1.269       .  A
C1032      O1035   1.264       .  A
C1032      C2441   1.482       .  S
Cd1033     O1040   2.440       .  S
Cd1033     O1039   2.436       .  S
Cd1033     O1038   2.458       .  S
Cd1033     O1034   2.468       .  S
Cd1033     O1037   2.493       .  S
Cd1033     O1035   2.440       .  S
C1036      O1040   1.265       .  A
C1036      C1673   1.482       .  S
O1041      C1044   1.266       .  A
O1041     Cd1046   2.495       .  S
C1042      O1051   1.265       .  A
C1042      O1047   1.269       .  A
C1042      C1641   1.482       .  S
O1043      C1049   1.267       .  A
O1043     Cd1046   2.474       .  S
C1044      O1052   1.264       .  A
C1044      C1585   1.484       .  S
C1045      O1050   1.265       .  A
C1045      O1048   1.265       .  A
C1045      C1577   1.481       .  S
Cd1046     O1053   2.447       .  S
Cd1046     O1052   2.466       .  S
Cd1046     O1051   2.441       .  S
Cd1046     O1047   2.496       .  S
Cd1046     O1050   2.476       .  S
Cd1046     O1048   2.470       .  S
C1049      O1053   1.265       .  A
C1049      C1609   1.478       .  S
O1054      C1057   1.266       .  A
O1054     Cd1059   2.462       .  S
C1055      O1064   1.264       .  A
C1055      O1060   1.267       .  A
C1055      C1553   1.481       .  S
O1056      C1062   1.268       .  A
O1056     Cd1059   2.482       .  S
C1057      O1065   1.266       .  A
C1057      C1625   1.480       .  S
C1058      O1063   1.267       .  A
C1058      O1061   1.265       .  A
C1058      C3753   1.482       .  S
Cd1059     O1066   2.445       .  S
Cd1059     O1065   2.472       .  S
Cd1059     O1064   2.438       .  S
Cd1059     O1060   2.502       .  S
Cd1059     O1063   2.495       .  S
Cd1059     O1061   2.453       .  S
C1062      O1066   1.265       .  A
C1062      C1601   1.479       .  S
O1067      C1070   1.265       .  A
O1067     Cd1072   2.471       .  S
C1068      O1077   1.264       .  A
C1068      O1073   1.265       .  A
C1068      C1849   1.476       .  S
O1069      C1075   1.266       .  A
O1069     Cd1072   2.491       .  S
C1070      O1078   1.267       .  A
C1070      C1593   1.483       .  S
C1071      O1076   1.266       .  A
C1071      O1074   1.264       .  A
C1071      C1537   1.480       .  S
Cd1072     O1079   2.472       .  S
Cd1072     O1078   2.478       .  S
Cd1072     O1077   2.455       .  S
Cd1072     O1073   2.470       .  S
Cd1072     O1076   2.494       .  S
Cd1072     O1074   2.452       .  S
C1075      O1079   1.265       .  A
C1075      C2585   1.485       .  S
O1080      C1083   1.267       .  A
O1080     Cd1085   2.507       .  S
C1081      O1090   1.265       .  A
C1081      O1086   1.265       .  A
C1081      C1825   1.488       .  S
O1082      C1088   1.266       .  A
O1082     Cd1085   2.482       .  S
C1083      O1091   1.264       .  A
C1083      C1561   1.482       .  S
C1084      O1089   1.264       .  A
C1084      O1087   1.266       .  A
C1084      C3673   1.485       .  S
Cd1085     O1092   2.466       .  S
Cd1085     O1091   2.438       .  S
Cd1085     O1090   2.488       .  S
Cd1085     O1086   2.497       .  S
Cd1085     O1089   2.485       .  S
Cd1085     O1087   2.490       .  S
C1088      O1092   1.265       .  A
C1088      C1545   1.482       .  S
O1093      C1096   1.269       .  A
O1093     Cd1098   2.487       .  S
C1094      O1103   1.263       .  A
C1094      O1099   1.269       .  A
C1094      C1497   1.480       .  S
O1095      C1101   1.268       .  A
O1095     Cd1098   2.495       .  S
C1096      O1104   1.266       .  A
C1096      C1505   1.486       .  S
C1097      O1102   1.268       .  A
C1097      O1100   1.266       .  A
C1097      C2009   1.481       .  S
Cd1098     O1105   2.431       .  S
Cd1098     O1104   2.469       .  S
Cd1098     O1103   2.420       .  S
Cd1098     O1099   2.512       .  S
Cd1098     O1102   2.475       .  S
Cd1098     O1100   2.448       .  S
C1101      O1105   1.265       .  A
C1101      C1521   1.480       .  S
O1106      C1109   1.263       .  A
O1106     Cd1111   2.460       .  S
C1107      O1116   1.267       .  A
C1107      O1112   1.266       .  A
C1107      C1457   1.481       .  S
O1108      C1114   1.266       .  A
O1108     Cd1111   2.494       .  S
C1109      O1117   1.265       .  A
C1109      C1473   1.480       .  S
C1110      O1115   1.263       .  A
C1110      O1113   1.265       .  A
C1110      C1657   1.480       .  S
Cd1111     O1118   2.436       .  S
Cd1111     O1117   2.487       .  S
Cd1111     O1116   2.465       .  S
Cd1111     O1112   2.470       .  S
Cd1111     O1115   2.466       .  S
Cd1111     O1113   2.486       .  S
C1114      O1118   1.264       .  A
C1114      C1529   1.478       .  S
O1119      C1122   1.265       .  A
O1119     Cd1124   2.473       .  S
C1120      O1129   1.265       .  A
C1120      O1125   1.264       .  A
C1120      C1425   1.480       .  S
O1121      C1127   1.267       .  A
O1121     Cd1124   2.498       .  S
C1122      O1130   1.266       .  A
C1122      C1489   1.479       .  S
C1123      O1128   1.265       .  A
C1123      O1126   1.265       .  A
C1123      C1897   1.482       .  S
Cd1124     O1131   2.445       .  S
Cd1124     O1130   2.457       .  S
Cd1124     O1129   2.470       .  S
Cd1124     O1125   2.466       .  S
Cd1124     O1128   2.477       .  S
Cd1124     O1126   2.479       .  S
C1127      O1131   1.264       .  A
C1127      C1441   1.481       .  S
O1132      C1135   1.265       .  A
O1132     Cd1137   2.464       .  S
C1133      O1142   1.265       .  A
C1133      O1138   1.265       .  A
C1133      C1409   1.482       .  S
O1134      C1140   1.265       .  A
O1134     Cd1137   2.485       .  S
C1135      O1143   1.266       .  A
C1135      C1481   1.481       .  S
C1136      O1141   1.267       .  A
C1136      O1139   1.264       .  A
C1136      C1449   1.480       .  S
Cd1137     O1144   2.502       .  S
Cd1137     O1143   2.480       .  S
Cd1137     O1142   2.463       .  S
Cd1137     O1138   2.490       .  S
Cd1137     O1141   2.501       .  S
Cd1137     O1139   2.447       .  S
C1140      O1144   1.266       .  A
C1140      C2929   1.488       .  S
O1145      C1148   1.266       .  A
O1145     Cd1150   2.490       .  S
C1146      O1155   1.264       .  A
C1146      O1151   1.268       .  A
C1146      C1417   1.484       .  S
O1147      C1153   1.265       .  A
O1147     Cd1150   2.490       .  S
C1148      O1156   1.265       .  A
C1148      C1385   1.484       .  S
C1149      O1154   1.265       .  A
C1149      O1152   1.267       .  A
C1149      C2745   1.481       .  S
Cd1150     O1157   2.445       .  S
Cd1150     O1156   2.469       .  S
Cd1150     O1155   2.435       .  S
Cd1150     O1151   2.519       .  S
Cd1150     O1154   2.470       .  S
Cd1150     O1152   2.468       .  S
C1153      O1157   1.264       .  A
C1153      C1393   1.479       .  S
O1158      C1161   1.265       .  A
O1158     Cd1163   2.474       .  S
C1159      O1168   1.264       .  A
C1159      O1164   1.267       .  A
C1159      C1369   1.480       .  S
O1160      C1166   1.267       .  A
O1160     Cd1163   2.492       .  S
C1161      O1169   1.266       .  A
C1161      C1433   1.482       .  S
C1162      O1167   1.264       .  A
C1162      O1165   1.265       .  A
C1162      C1737   1.484       .  S
Cd1163     O1170   2.435       .  S
Cd1163     O1169   2.479       .  S
Cd1163     O1168   2.432       .  S
Cd1163     O1164   2.498       .  S
Cd1163     O1167   2.480       .  S
Cd1163     O1165   2.487       .  S
C1166      O1170   1.264       .  A
C1166      C1401   1.479       .  S
O1171      C1174   1.265       .  A
O1171     Cd1176   2.508       .  S
C1172      O1181   1.269       .  A
C1172      O1177   1.265       .  A
C1172      C1377   1.486       .  S
O1173      C1179   1.267       .  A
O1173     Cd1176   2.511       .  S
C1174      O1182   1.263       .  A
C1174      C1329   1.482       .  S
C1175      O1180   1.265       .  A
C1175      O1178   1.265       .  A
C1175      C2033   1.488       .  S
Cd1176     O1183   2.453       .  S
Cd1176     O1182   2.455       .  S
Cd1176     O1181   2.502       .  S
Cd1176     O1177   2.455       .  S
Cd1176     O1180   2.505       .  S
Cd1176     O1178   2.479       .  S
C1179      O1183   1.264       .  A
C1179      C1345   1.483       .  S
O1184      C1187   1.268       .  A
O1184     Cd1189   2.501       .  S
C1185      O1194   1.266       .  A
C1185      O1190   1.267       .  A
C1185      C1313   1.483       .  S
O1186      C1192   1.268       .  A
O1186     Cd1189   2.506       .  S
C1187      O1195   1.264       .  A
C1187      C1361   1.480       .  S
C1188      O1193   1.267       .  A
C1188      O1191   1.266       .  A
C1188      C1817   1.484       .  S
Cd1189     O1196   2.448       .  S
Cd1189     O1195   2.424       .  S
Cd1189     O1194   2.460       .  S
Cd1189     O1190   2.489       .  S
Cd1189     O1193   2.487       .  S
Cd1189     O1191   2.467       .  S
C1192      O1196   1.264       .  A
C1192      C1353   1.484       .  S
O1197      C1200   1.265       .  A
O1197     Cd1202   2.468       .  S
C1198      O1207   1.267       .  A
C1198      O1203   1.262       .  A
C1198      C1513   1.483       .  S
O1199      C1205   1.269       .  A
O1199     Cd1202   2.520       .  S
C1200      O1208   1.267       .  A
C1200      C1281   1.479       .  S
C1201      O1206   1.266       .  A
C1201      O1204   1.263       .  A
C1201      C2841   1.484       .  S
Cd1202     O1209   2.454       .  S
Cd1202     O1208   2.465       .  S
Cd1202     O1207   2.517       .  S
Cd1202     O1203   2.437       .  S
Cd1202     O1206   2.494       .  S
Cd1202     O1204   2.475       .  S
C1205      O1209   1.264       .  A
C1205      C1297   1.487       .  S
O1210      C1213   1.267       .  A
O1210     Cd1215   2.494       .  S
C1211      O1220   1.267       .  A
C1211      O1216   1.267       .  A
C1211      C1265   1.482       .  S
O1212      C1218   1.269       .  A
O1212     Cd1215   2.504       .  S
C1213      O1221   1.264       .  A
C1213      C1465   1.479       .  S
C1214      O1219   1.268       .  A
C1214      O1217   1.264       .  A
C1214      C1569   1.481       .  S
Cd1215     O1222   2.457       .  S
Cd1215     O1221   2.434       .  S
Cd1215     O1220   2.473       .  S
Cd1215     O1216   2.463       .  S
Cd1215     O1219   2.496       .  S
Cd1215     O1217   2.440       .  S
C1218      O1222   1.265       .  A
C1218      C1305   1.486       .  S
O1223      C1226   1.267       .  A
O1223     Cd1228   2.466       .  S
C1224      O1233   1.263       .  A
C1224      O1229   1.267       .  A
C1224      C1289   1.479       .  S
O1225      C1231   1.268       .  A
O1225     Cd1228   2.503       .  S
C1226      O1234   1.268       .  A
C1226      C1321   1.483       .  S
C1227      O1232   1.267       .  A
C1227      O1230   1.264       .  A
C1227      C2697   1.482       .  S
Cd1228     O1235   2.447       .  S
Cd1228     O1234   2.469       .  S
Cd1228     O1233   2.435       .  S
Cd1228     O1229   2.500       .  S
Cd1228     O1232   2.488       .  S
Cd1228     O1230   2.461       .  S
C1231      O1235   1.265       .  A
C1231      C1257   1.484       .  S
O1236      C1239   1.265       .  A
O1236     Cd1241   2.473       .  S
C1237      O1246   1.265       .  A
C1237      O1242   1.266       .  A
C1237      C1337   1.482       .  S
O1238      C1244   1.267       .  A
O1238     Cd1241   2.499       .  S
C1239      O1247   1.266       .  A
C1239      C1273   1.482       .  S
C1240      O1245   1.266       .  A
C1240      O1243   1.265       .  A
C1240      C2121   1.481       .  S
Cd1241     O1248   2.456       .  S
Cd1241     O1247   2.476       .  S
Cd1241     O1246   2.453       .  S
Cd1241     O1242   2.488       .  S
Cd1241     O1245   2.483       .  S
Cd1241     O1243   2.461       .  S
C1244      O1248   1.264       .  A
C1244      C1249   1.483       .  S
C1249      C1250   1.406       .  A
C1249      C1254   1.406       .  A
C1250      C1251   1.402       .  A
C1250      H1259   1.083       .  S
C1251      C1252   1.405       .  A
C1251      H1260   1.083       .  S
C1252      C1258   1.410       .  A
C1252      C1253   1.414       .  A
C1253      C1255   1.400       .  A
C1253      C1254   1.403       .  A
C1254      H1261   1.084       .  S
C1255      C1256   1.395       .  A
C1255      H1262   1.084       .  S
C1256      C1257   1.406       .  A
C1256      H1263   1.083       .  S
C1257      C1258   1.409       .  A
C1258      H1264   1.084       .  S
C1265      C1266   1.406       .  A
C1265      C1270   1.407       .  A
C1266      C1267   1.398       .  A
C1266      H1275   1.083       .  S
C1267      C1268   1.402       .  A
C1267      H1276   1.084       .  S
C1268      C1274   1.405       .  A
C1268      C1269   1.414       .  A
C1269      C1271   1.402       .  A
C1269      C1270   1.405       .  A
C1270      H1277   1.084       .  S
C1271      C1272   1.398       .  A
C1271      H1278   1.084       .  S
C1272      C1273   1.406       .  A
C1272      H1279   1.083       .  S
C1273      C1274   1.407       .  A
C1274      H1280   1.084       .  S
C1281      C1282   1.406       .  A
C1281      C1286   1.403       .  A
C1282      C1283   1.400       .  A
C1282      H1291   1.083       .  S
C1283      C1284   1.403       .  A
C1283      H1292   1.084       .  S
C1284      C1290   1.407       .  A
C1284      C1285   1.414       .  A
C1285      C1287   1.399       .  A
C1285      C1286   1.402       .  A
C1286      H1293   1.084       .  S
C1287      C1288   1.393       .  A
C1287      H1294   1.084       .  S
C1288      C1289   1.406       .  A
C1288      H1295   1.083       .  S
C1289      C1290   1.407       .  A
C1290      H1296   1.084       .  S
C1297      C1298   1.406       .  A
C1297      C1302   1.408       .  A
C1298      C1299   1.403       .  A
C1298      H1307   1.083       .  S
C1299      C1300   1.405       .  A
C1299      H1308   1.084       .  S
C1300      C1306   1.411       .  A
C1300      C1301   1.413       .  A
C1301      C1303   1.401       .  A
C1301      C1302   1.404       .  A
C1302      H1309   1.084       .  S
C1303      C1304   1.397       .  A
C1303      H1310   1.084       .  S
C1304      C1305   1.406       .  A
C1304      H1311   1.083       .  S
C1305      C1306   1.410       .  A
C1306      H1312   1.084       .  S
C1313      C1314   1.406       .  A
C1313      C1318   1.408       .  A
C1314      C1315   1.397       .  A
C1314      H1323   1.083       .  S
C1315      C1316   1.401       .  A
C1315      H1324   1.084       .  S
C1316      C1322   1.405       .  A
C1316      C1317   1.414       .  A
C1317      C1319   1.403       .  A
C1317      C1318   1.407       .  A
C1318      H1325   1.084       .  S
C1319      C1320   1.399       .  A
C1319      H1326   1.084       .  S
C1320      C1321   1.406       .  A
C1320      H1327   1.083       .  S
C1321      C1322   1.406       .  A
C1322      H1328   1.084       .  S
C1329      C1330   1.405       .  A
C1329      C1334   1.410       .  A
C1330      C1331   1.394       .  A
C1330      H1339   1.083       .  S
C1331      C1332   1.399       .  A
C1331      H1340   1.084       .  S
C1332      C1338   1.402       .  A
C1332      C1333   1.414       .  A
C1333      C1335   1.405       .  A
C1333      C1334   1.410       .  A
C1334      H1341   1.084       .  S
C1335      C1336   1.402       .  A
C1335      H1342   1.083       .  S
C1336      C1337   1.406       .  A
C1336      H1343   1.083       .  S
C1337      C1338   1.404       .  A
C1338      H1344   1.084       .  S
C1345      C1346   1.406       .  A
C1345      C1350   1.406       .  A
C1346      C1347   1.403       .  A
C1346      H1355   1.083       .  S
C1347      C1348   1.405       .  A
C1347      H1356   1.084       .  S
C1348      C1354   1.410       .  A
C1348      C1349   1.414       .  A
C1349      C1351   1.400       .  A
C1349      C1350   1.403       .  A
C1350      H1357   1.084       .  S
C1351      C1352   1.395       .  A
C1351      H1358   1.084       .  S
C1352      C1353   1.407       .  A
C1352      H1359   1.083       .  S
C1353      C1354   1.409       .  A
C1354      H1360   1.084       .  S
C1361      C1362   1.406       .  A
C1361      C1366   1.409       .  A
C1362      C1363   1.392       .  A
C1362      H1371   1.083       .  S
C1363      C1364   1.398       .  A
C1363      H1372   1.084       .  S
C1364      C1370   1.399       .  A
C1364      C1365   1.414       .  A
C1365      C1367   1.405       .  A
C1365      C1366   1.409       .  A
C1366      H1373   1.084       .  S
C1367      C1368   1.403       .  A
C1367      H1374   1.083       .  S
C1368      C1369   1.406       .  A
C1368      H1375   1.083       .  S
C1369      C1370   1.404       .  A
C1370      H1376   1.084       .  S
C1377      C1378   1.407       .  A
C1377      C1382   1.408       .  A
C1378      C1379   1.398       .  A
C1378      H1387   1.083       .  S
C1379      C1380   1.401       .  A
C1379      H1388   1.084       .  S
C1380      C1386   1.407       .  A
C1380      C1381   1.414       .  A
C1381      C1383   1.402       .  A
C1381      C1382   1.409       .  A
C1382      H1389   1.084       .  S
C1383      C1384   1.399       .  A
C1383      H1390   1.083       .  S
C1384      C1385   1.406       .  A
C1384      H1391   1.083       .  S
C1385      C1386   1.407       .  A
C1386      H1392   1.084       .  S
C1393      C1394   1.406       .  A
C1393      C1398   1.403       .  A
C1394      C1395   1.401       .  A
C1394      H1403   1.083       .  S
C1395      C1396   1.404       .  A
C1395      H1404   1.084       .  S
C1396      C1402   1.408       .  A
C1396      C1397   1.414       .  A
C1397      C1399   1.399       .  A
C1397      C1398   1.400       .  A
C1398      H1405   1.084       .  S
C1399      C1400   1.393       .  A
C1399      H1406   1.084       .  S
C1400      C1401   1.405       .  A
C1400      H1407   1.083       .  S
C1401      C1402   1.408       .  A
C1402      H1408   1.084       .  S
C1409      C1410   1.407       .  A
C1409      C1414   1.404       .  A
C1410      C1411   1.403       .  A
C1410      H1419   1.083       .  S
C1411      C1412   1.405       .  A
C1411      H1420   1.083       .  S
C1412      C1418   1.411       .  A
C1412      C1413   1.414       .  A
C1413      C1415   1.398       .  A
C1413      C1414   1.402       .  A
C1414      H1421   1.084       .  S
C1415      C1416   1.393       .  A
C1415      H1422   1.084       .  S
C1416      C1417   1.406       .  A
C1416      H1423   1.083       .  S
C1417      C1418   1.410       .  A
C1418      H1424   1.084       .  S
C1425      C1426   1.406       .  A
C1425      C1430   1.406       .  A
C1426      C1427   1.398       .  A
C1426      H1435   1.083       .  S
C1427      C1428   1.402       .  A
C1427      H1436   1.084       .  S
C1428      C1434   1.405       .  A
C1428      C1429   1.414       .  A
C1429      C1431   1.402       .  A
C1429      C1430   1.404       .  A
C1430      H1437   1.084       .  S
C1431      C1432   1.398       .  A
C1431      H1438   1.084       .  S
C1432      C1433   1.406       .  A
C1432      H1439   1.083       .  S
C1433      C1434   1.408       .  A
C1434      H1440   1.084       .  S
C1441      C1442   1.406       .  A
C1441      C1446   1.405       .  A
C1442      C1443   1.402       .  A
C1442      H1451   1.083       .  S
C1443      C1444   1.405       .  A
C1443      H1452   1.083       .  S
C1444      C1450   1.409       .  A
C1444      C1445   1.414       .  A
C1445      C1447   1.400       .  A
C1445      C1446   1.401       .  A
C1446      H1453   1.084       .  S
C1447      C1448   1.394       .  A
C1447      H1454   1.084       .  S
C1448      C1449   1.405       .  A
C1448      H1455   1.083       .  S
C1449      C1450   1.408       .  A
C1450      H1456   1.084       .  S
C1457      C1458   1.406       .  A
C1457      C1462   1.405       .  A
C1458      C1459   1.400       .  A
C1458      H1467   1.083       .  S
C1459      C1460   1.403       .  A
C1459      H1468   1.083       .  S
C1460      C1466   1.407       .  A
C1460      C1461   1.414       .  A
C1461      C1463   1.400       .  A
C1461      C1462   1.403       .  A
C1462      H1469   1.084       .  S
C1463      C1464   1.394       .  A
C1463      H1470   1.083       .  S
C1464      C1465   1.406       .  A
C1464      H1471   1.083       .  S
C1465      C1466   1.407       .  A
C1466      H1472   1.084       .  S
C1473      C1474   1.405       .  A
C1473      C1478   1.407       .  A
C1474      C1475   1.399       .  A
C1474      H1483   1.083       .  S
C1475      C1476   1.403       .  A
C1475      H1484   1.083       .  S
C1476      C1482   1.406       .  A
C1476      C1477   1.414       .  A
C1477      C1479   1.401       .  A
C1477      C1478   1.403       .  A
C1478      H1485   1.084       .  S
C1479      C1480   1.397       .  A
C1479      H1486   1.084       .  S
C1480      C1481   1.406       .  A
C1480      H1487   1.083       .  S
C1481      C1482   1.407       .  A
C1482      H1488   1.084       .  S
C1489      C1490   1.406       .  A
C1489      C1494   1.404       .  A
C1490      C1491   1.400       .  A
C1490      H1499   1.083       .  S
C1491      C1492   1.403       .  A
C1491      H1500   1.083       .  S
C1492      C1498   1.408       .  A
C1492      C1493   1.415       .  A
C1493      C1495   1.399       .  A
C1493      C1494   1.401       .  A
C1494      H1501   1.084       .  S
C1495      C1496   1.393       .  A
C1495      H1502   1.084       .  S
C1496      C1497   1.406       .  A
C1496      H1503   1.083       .  S
C1497      C1498   1.407       .  A
C1498      H1504   1.084       .  S
C1505      C1506   1.408       .  A
C1505      C1510   1.405       .  A
C1506      C1507   1.401       .  A
C1506      H1515   1.083       .  S
C1507      C1508   1.403       .  A
C1507      H1516   1.084       .  S
C1508      C1514   1.410       .  A
C1508      C1509   1.415       .  A
C1509      C1511   1.400       .  A
C1509      C1510   1.406       .  A
C1510      H1517   1.084       .  S
C1511      C1512   1.395       .  A
C1511      H1518   1.084       .  S
C1512      C1513   1.406       .  A
C1512      H1519   1.083       .  S
C1513      C1514   1.408       .  A
C1514      H1520   1.084       .  S
C1521      C1522   1.405       .  A
C1521      C1526   1.409       .  A
C1522      C1523   1.392       .  A
C1522      H1531   1.083       .  S
C1523      C1524   1.399       .  A
C1523      H1532   1.084       .  S
C1524      C1530   1.399       .  A
C1524      C1525   1.414       .  A
C1525      C1527   1.405       .  A
C1525      C1526   1.408       .  A
C1526      H1533   1.084       .  S
C1527      C1528   1.402       .  A
C1527      H1534   1.083       .  S
C1528      C1529   1.406       .  A
C1528      H1535   1.083       .  S
C1529      C1530   1.403       .  A
C1530      H1536   1.084       .  S
C1537      C1538   1.406       .  A
C1537      C1542   1.407       .  A
C1538      C1539   1.396       .  A
C1538      H1547   1.083       .  S
C1539      C1540   1.401       .  A
C1539      H1548   1.084       .  S
C1540      C1546   1.404       .  A
C1540      C1541   1.414       .  A
C1541      C1543   1.403       .  A
C1541      C1542   1.407       .  A
C1542      H1549   1.084       .  S
C1543      C1544   1.400       .  A
C1543      H1550   1.083       .  S
C1544      C1545   1.406       .  A
C1544      H1551   1.083       .  S
C1545      C1546   1.406       .  A
C1546      H1552   1.084       .  S
C1553      C1554   1.405       .  A
C1553      C1558   1.410       .  A
C1554      C1555   1.392       .  A
C1554      H1563   1.083       .  S
C1555      C1556   1.399       .  A
C1555      H1564   1.084       .  S
C1556      C1562   1.400       .  A
C1556      C1557   1.413       .  A
C1557      C1559   1.406       .  A
C1557      C1558   1.410       .  A
C1558      H1565   1.084       .  S
C1559      C1560   1.404       .  A
C1559      H1566   1.083       .  S
C1560      C1561   1.407       .  A
C1560      H1567   1.083       .  S
C1561      C1562   1.404       .  A
C1562      H1568   1.084       .  S
C1569      C1570   1.407       .  A
C1569      C1574   1.407       .  A
C1570      C1571   1.396       .  A
C1570      H1579   1.083       .  S
C1571      C1572   1.400       .  A
C1571      H1580   1.084       .  S
C1572      C1578   1.404   1_565  A
C1572      C1573   1.414       .  A
C1573      C1575   1.403       .  A
C1573      C1574   1.407       .  A
C1574      H1581   1.084       .  S
C1575      C1576   1.399   1_565  A
C1575      H1582   1.083       .  S
C1576      C1577   1.406       .  A
C1576      H1583   1.083       .  S
C1577      C1578   1.406       .  A
C1578      H1584   1.084       .  S
C1585      C1586   1.407       .  A
C1585      C1590   1.408       .  A
C1586      C1587   1.397       .  A
C1586      H1595   1.083       .  S
C1587      C1588   1.401       .  A
C1587      H1596   1.084       .  S
C1588      C1594   1.405       .  A
C1588      C1589   1.414       .  A
C1589      C1591   1.403       .  A
C1589      C1590   1.407       .  A
C1590      H1597   1.084       .  S
C1591      C1592   1.399       .  A
C1591      H1598   1.084       .  S
C1592      C1593   1.407       .  A
C1592      H1599   1.083       .  S
C1593      C1594   1.406       .  A
C1594      H1600   1.084       .  S
C1601      C1602   1.406       .  A
C1601      C1606   1.406       .  A
C1602      C1603   1.396       .  A
C1602      H1611   1.083       .  S
C1603      C1604   1.401       .  A
C1603      H1612   1.084       .  S
C1604      C1610   1.402       .  A
C1604      C1605   1.414       .  A
C1605      C1607   1.403       .  A
C1605      C1606   1.405       .  A
C1606      H1613   1.084       .  S
C1607      C1608   1.399       .  A
C1607      H1614   1.083       .  S
C1608      C1609   1.405       .  A
C1608      H1615   1.083       .  S
C1609      C1610   1.406       .  A
C1610      H1616   1.084       .  S
C1617      C1618   1.405       .  A
C1617      C1622   1.406       .  A
C1618      C1619   1.397       .  A
C1618      H1627   1.083       .  S
C1619      C1620   1.402       .  A
C1619      H1628   1.084       .  S
C1620      C1626   1.405       .  A
C1620      C1621   1.414       .  A
C1621      C1623   1.402       .  A
C1621      C1622   1.405       .  A
C1622      H1629   1.084       .  S
C1623      C1624   1.398       .  A
C1623      H1630   1.084       .  S
C1624      C1625   1.405       .  A
C1624      H1631   1.083       .  S
C1625      C1626   1.407       .  A
C1626      H1632   1.084       .  S
C1633      C1634   1.406       .  A
C1633      C1638   1.407       .  A
C1634      C1635   1.401       .  A
C1634      H1643   1.083       .  S
C1635      C1636   1.404       .  A
C1635      H1644   1.083       .  S
C1636      C1642   1.409       .  A
C1636      C1637   1.414       .  A
C1637      C1639   1.401       .  A
C1637      C1638   1.405       .  A
C1638      H1645   1.084       .  S
C1639      C1640   1.396       .  A
C1639      H1646   1.083       .  S
C1640      C1641   1.406       .  A
C1640      H1647   1.083       .  S
C1641      C1642   1.408       .  A
C1642      H1648   1.084       .  S
C1649      C1650   1.406       .  A
C1649      C1654   1.407       .  A
C1650      C1651   1.397       .  A
C1650      H1659   1.083       .  S
C1651      C1652   1.401   1_545  A
C1651      H1660   1.084   1_545  S
C1652      C1658   1.405       .  A
C1652      C1653   1.414   1_565  A
C1653      C1655   1.402   1_545  A
C1653      C1654   1.405       .  A
C1654      H1661   1.084       .  S
C1655      C1656   1.398       .  A
C1655      H1662   1.083       .  S
C1656      C1657   1.406       .  A
C1656      H1663   1.083       .  S
C1657      C1658   1.406       .  A
C1658      H1664   1.084       .  S
C1665      C1666   1.406       .  A
C1665      C1670   1.405       .  A
C1666      C1667   1.402       .  A
C1666      H1675   1.083       .  S
C1667      C1668   1.405       .  A
C1667      H1676   1.083       .  S
C1668      C1674   1.409       .  A
C1668      C1669   1.413       .  A
C1669      C1671   1.399       .  A
C1669      C1670   1.400       .  A
C1670      H1677   1.084       .  S
C1671      C1672   1.394       .  A
C1671      H1678   1.084       .  S
C1672      C1673   1.406       .  A
C1672      H1679   1.083       .  S
C1673      C1674   1.409       .  A
C1674      H1680   1.084       .  S
C1681      C1682   1.405       .  A
C1681      C1686   1.405       .  A
C1682      C1683   1.399       .  A
C1682      H1691   1.083       .  S
C1683      C1684   1.403       .  A
C1683      H1692   1.083       .  S
C1684      C1690   1.405       .  A
C1684      C1685   1.414       .  A
C1685      C1687   1.400       .  A
C1685      C1686   1.400       .  A
C1686      H1693   1.084       .  S
C1687      C1688   1.394       .  A
C1687      H1694   1.084       .  S
C1688      C1689   1.406       .  A
C1688      H1695   1.083       .  S
C1689      C1690   1.406       .  A
C1690      H1696   1.084       .  S
C1697      C1698   1.407       .  A
C1697      C1702   1.407       .  A
C1698      C1699   1.399       .  A
C1698      H1707   1.083       .  S
C1699      C1700   1.402       .  A
C1699      H1708   1.084       .  S
C1700      C1706   1.408       .  A
C1700      C1701   1.414       .  A
C1701      C1703   1.402       .  A
C1701      C1702   1.407       .  A
C1702      H1709   1.084       .  S
C1703      C1704   1.398       .  A
C1703      H1710   1.084       .  S
C1704      C1705   1.407       .  A
C1704      H1711   1.083       .  S
C1705      C1706   1.408       .  A
C1706      H1712   1.084       .  S
C1713      C1714   1.405       .  A
C1713      C1718   1.407       .  A
C1714      C1715   1.399       .  A
C1714      H1723   1.083       .  S
C1715      C1716   1.403       .  A
C1715      H1724   1.084       .  S
C1716      C1722   1.407       .  A
C1716      C1717   1.414       .  A
C1717      C1719   1.402       .  A
C1717      C1718   1.405       .  A
C1718      H1725   1.084       .  S
C1719      C1720   1.397       .  A
C1719      H1726   1.084       .  S
C1720      C1721   1.406       .  A
C1720      H1727   1.083       .  S
C1721      C1722   1.407       .  A
C1722      H1728   1.084       .  S
C1729      C1730   1.406       .  A
C1729      C1734   1.408       .  A
C1730      C1731   1.398       .  A
C1730      H1739   1.083       .  S
C1731      C1732   1.402       .  A
C1731      H1740   1.084       .  S
C1732      C1738   1.406       .  A
C1732      C1733   1.414       .  A
C1733      C1735   1.403       .  A
C1733      C1734   1.406       .  A
C1734      H1741   1.084       .  S
C1735      C1736   1.399       .  A
C1735      H1742   1.084       .  S
C1736      C1737   1.407       .  A
C1736      H1743   1.083       .  S
C1737      C1738   1.407       .  A
C1738      H1744   1.084       .  S
C1745      C1746   1.406       .  A
C1745      C1750   1.408       .  A
C1746      C1747   1.396       .  A
C1746      H1755   1.083       .  S
C1747      C1748   1.401       .  A
C1747      H1756   1.084       .  S
C1748      C1754   1.404       .  A
C1748      C1749   1.414       .  A
C1749      C1751   1.403       .  A
C1749      C1750   1.407       .  A
C1750      H1757   1.084       .  S
C1751      C1752   1.399       .  A
C1751      H1758   1.084       .  S
C1752      C1753   1.406       .  A
C1752      H1759   1.083       .  S
C1753      C1754   1.406       .  A
C1754      H1760   1.084       .  S
C1761      C1762   1.407       .  A
C1761      C1766   1.404       .  A
C1762      C1763   1.402       .  A
C1762      H1771   1.083       .  S
C1763      C1764   1.404       .  A
C1763      H1772   1.083       .  S
C1764      C1770   1.409       .  A
C1764      C1765   1.414       .  A
C1765      C1767   1.398       .  A
C1765      C1766   1.401       .  A
C1766      H1773   1.084       .  S
C1767      C1768   1.392       .  A
C1767      H1774   1.084       .  S
C1768      C1769   1.406       .  A
C1768      H1775   1.083       .  S
C1769      C1770   1.409       .  A
C1770      H1776   1.084       .  S
C1777      C1778   1.407       .  A
C1777      C1782   1.408       .  A
C1778      C1779   1.394       .  A
C1778      H1787   1.083       .  S
C1779      C1780   1.399       .  A
C1779      H1788   1.084       .  S
C1780      C1786   1.401       .  A
C1780      C1781   1.414       .  A
C1781      C1783   1.404       .  A
C1781      C1782   1.408       .  A
C1782      H1789   1.084       .  S
C1783      C1784   1.401       .  A
C1783      H1790   1.083       .  S
C1784      C1785   1.406       .  A
C1784      H1791   1.083       .  S
C1785      C1786   1.405       .  A
C1786      H1792   1.084       .  S
C1793      C1794   1.406       .  A
C1793      C1798   1.404       .  A
C1794      C1795   1.400       .  A
C1794      H1803   1.083       .  S
C1795      C1796   1.403       .  A
C1795      H1804   1.083       .  S
C1796      C1802   1.408       .  A
C1796      C1797   1.414       .  A
C1797      C1799   1.399       .  A
C1797      C1798   1.403       .  A
C1798      H1805   1.084       .  S
C1799      C1800   1.394       .  A
C1799      H1806   1.083       .  S
C1800      C1801   1.406       .  A
C1800      H1807   1.083       .  S
C1801      C1802   1.408       .  A
C1802      H1808   1.084       .  S
C1809      C1810   1.407       .  A
C1809      C1814   1.408       .  A
C1810      C1811   1.400       .  A
C1810      H1819   1.083       .  S
C1811      C1812   1.402       .  A
C1811      H1820   1.083       .  S
C1812      C1818   1.408       .  A
C1812      C1813   1.414       .  A
C1813      C1815   1.402       .  A
C1813      C1814   1.407       .  A
C1814      H1821   1.084       .  S
C1815      C1816   1.399       .  A
C1815      H1822   1.083       .  S
C1816      C1817   1.406       .  A
C1816      H1823   1.083       .  S
C1817      C1818   1.408       .  A
C1818      H1824   1.084       .  S
C1825      C1826   1.407       .  A
C1825      C1830   1.408       .  A
C1826      C1827   1.401       .  A
C1826      H1835   1.083       .  S
C1827      C1828   1.403       .  A
C1827      H1836   1.083       .  S
C1828      C1834   1.411       .  A
C1828      C1829   1.414       .  A
C1829      C1831   1.401       .  A
C1829      C1830   1.408       .  A
C1830      H1837   1.084       .  S
C1831      C1832   1.398       .  A
C1831      H1838   1.083       .  S
C1832      C1833   1.407       .  A
C1832      H1839   1.083       .  S
C1833      C1834   1.409       .  A
C1834      H1840   1.084       .  S
C1841      C1842   1.405       .  A
C1841      C1846   1.405       .  A
C1842      C1843   1.395       .  A
C1842      H1851   1.083       .  S
C1843      C1844   1.401       .  A
C1843      H1852   1.084       .  S
C1844      C1850   1.401       .  A
C1844      C1845   1.414       .  A
C1845      C1847   1.402       .  A
C1845      C1846   1.403       .  A
C1846      H1853   1.084       .  S
C1847      C1848   1.397       .  A
C1847      H1854   1.084       .  S
C1848      C1849   1.405       .  A
C1848      H1855   1.083       .  S
C1849      C1850   1.405       .  A
C1850      H1856   1.084       .  S
C1857      C1858   1.407       .  A
C1857      C1862   1.406       .  A
C1858      C1859   1.398       .  A
C1858      H1867   1.083       .  S
C1859      C1860   1.401       .  A
C1859      H1868   1.084       .  S
C1860      C1866   1.405       .  A
C1860      C1861   1.414       .  A
C1861      C1863   1.402       .  A
C1861      C1862   1.406       .  A
C1862      H1869   1.084       .  S
C1863      C1864   1.398       .  A
C1863      H1870   1.084       .  S
C1864      C1865   1.406       .  A
C1864      H1871   1.083       .  S
C1865      C1866   1.406       .  A
C1866      H1872   1.084       .  S
C1873      C1874   1.406       .  A
C1873      C1878   1.406       .  A
C1874      C1875   1.397       .  A
C1874      H1883   1.083       .  S
C1875      C1876   1.401       .  A
C1875      H1884   1.084       .  S
C1876      C1882   1.404       .  A
C1876      C1877   1.414       .  A
C1877      C1879   1.402       .  A
C1877      C1878   1.406       .  A
C1878      H1885   1.084       .  S
C1879      C1880   1.398       .  A
C1879      H1886   1.083       .  S
C1880      C1881   1.405       .  A
C1880      H1887   1.083       .  S
C1881      C1882   1.407       .  A
C1882      H1888   1.084       .  S
C1889      C1890   1.405       .  A
C1889      C1894   1.407       .  A
C1890      C1891   1.398       .  A
C1890      H1899   1.083       .  S
C1891      C1892   1.403       .  A
C1891      H1900   1.083       .  S
C1892      C1898   1.405       .  A
C1892      C1893   1.413       .  A
C1893      C1895   1.402       .  A
C1893      C1894   1.405       .  A
C1894      H1901   1.084       .  S
C1895      C1896   1.398       .  A
C1895      H1902   1.084       .  S
C1896      C1897   1.406       .  A
C1896      H1903   1.083       .  S
C1897      C1898   1.407       .  A
C1898      H1904   1.084       .  S
C1905      C1906   1.406       .  A
C1905      C1910   1.407       .  A
C1906      C1907   1.394       .  A
C1906      H1915   1.083       .  S
C1907      C1908   1.400       .  A
C1907      H1916   1.084       .  S
C1908      C1914   1.400       .  A
C1908      C1909   1.414       .  A
C1909      C1911   1.404       .  A
C1909      C1910   1.406       .  A
C1910      H1917   1.084       .  S
C1911      C1912   1.400       .  A
C1911      H1918   1.083       .  S
C1912      C1913   1.405       .  A
C1912      H1919   1.083       .  S
C1913      C1914   1.405       .  A
C1914      H1920   1.084       .  S
C1921      C1922   1.406       .  A
C1921      C1926   1.406       .  A
C1922      C1923   1.399       .  A
C1922      H1931   1.083       .  S
C1923      C1924   1.403       .  A
C1923      H1932   1.084       .  S
C1924      C1930   1.407       .  A
C1924      C1925   1.414       .  A
C1925      C1927   1.401       .  A
C1925      C1926   1.404       .  A
C1926      H1933   1.084       .  S
C1927      C1928   1.396       .  A
C1927      H1934   1.084       .  S
C1928      C1929   1.406       .  A
C1928      H1935   1.083       .  S
C1929      C1930   1.407       .  A
C1930      H1936   1.084       .  S
C1937      C1938   1.406       .  A
C1937      C1942   1.406       .  A
C1938      C1939   1.397       .  A
C1938      H1947   1.083       .  S
C1939      C1940   1.401       .  A
C1939      H1948   1.083       .  S
C1940      C1946   1.403       .  A
C1940      C1941   1.414       .  A
C1941      C1943   1.402       .  A
C1941      C1942   1.404       .  A
C1942      H1949   1.084       .  S
C1943      C1944   1.397       .  A
C1943      H1950   1.083       .  S
C1944      C1945   1.405       .  A
C1944      H1951   1.083       .  S
C1945      C1946   1.406       .  A
C1946      H1952   1.084       .  S
C1953      C1954   1.406       .  A
C1953      C1958   1.406       .  A
C1954      C1955   1.395       .  A
C1954      H1963   1.083       .  S
C1955      C1956   1.400       .  A
C1955      H1964   1.084       .  S
C1956      C1962   1.403       .  A
C1956      C1957   1.414       .  A
C1957      C1959   1.403       .  A
C1957      C1958   1.407       .  A
C1958      H1965   1.084       .  S
C1959      C1960   1.400       .  A
C1959      H1966   1.083       .  S
C1960      C1961   1.406       .  A
C1960      H1967   1.083       .  S
C1961      C1962   1.406       .  A
C1962      H1968   1.084       .  S
C1969      C1970   1.406       .  A
C1969      C1974   1.406       .  A
C1970      C1971   1.400       .  A
C1970      H1979   1.083       .  S
C1971      C1972   1.404       .  A
C1971      H1980   1.083       .  S
C1972      C1978   1.408       .  A
C1972      C1973   1.414       .  A
C1973      C1975   1.401       .  A
C1973      C1974   1.404       .  A
C1974      H1981   1.084       .  S
C1975      C1976   1.397       .  A
C1975      H1982   1.083       .  S
C1976      C1977   1.406       .  A
C1976      H1983   1.083       .  S
C1977      C1978   1.409       .  A
C1978      H1984   1.084       .  S
C1985      C1986   1.406       .  A
C1985      C1990   1.405       .  A
C1986      C1987   1.396       .  A
C1986      H1995   1.083       .  S
C1987      C1988   1.401       .  A
C1987      H1996   1.084       .  S
C1988      C1994   1.403       .  A
C1988      C1989   1.414       .  A
C1989      C1991   1.402       .  A
C1989      C1990   1.404       .  A
C1990      H1997   1.084       .  S
C1991      C1992   1.397       .  A
C1991      H1998   1.083       .  S
C1992      C1993   1.405       .  A
C1992      H1999   1.083       .  S
C1993      C1994   1.406       .  A
C1994      H2000   1.084       .  S
C2001      C2002   1.406       .  A
C2001      C2006   1.406       .  A
C2002      C2003   1.399       .  A
C2002      H2011   1.083       .  S
C2003      C2004   1.402       .  A
C2003      H2012   1.084       .  S
C2004      C2010   1.406       .  A
C2004      C2005   1.414       .  A
C2005      C2007   1.401       .  A
C2005      C2006   1.405       .  A
C2006      H2013   1.084       .  S
C2007      C2008   1.397       .  A
C2007      H2014   1.084       .  S
C2008      C2009   1.406       .  A
C2008      H2015   1.083       .  S
C2009      C2010   1.407       .  A
C2010      H2016   1.084       .  S
C2017      C2018   1.405       .  A
C2017      C2022   1.404       .  A
C2018      C2019   1.400       .  A
C2018      H2027   1.083       .  S
C2019      C2020   1.404       .  A
C2019      H2028   1.083       .  S
C2020      C2026   1.407       .  A
C2020      C2021   1.414       .  A
C2021      C2023   1.399       .  A
C2021      C2022   1.400       .  A
C2022      H2029   1.084       .  S
C2023      C2024   1.393       .  A
C2023      H2030   1.084       .  S
C2024      C2025   1.405       .  A
C2024      H2031   1.083       .  S
C2025      C2026   1.407       .  A
C2026      H2032   1.084       .  S
C2033      C2034   1.406       .  A
C2033      C2038   1.410       .  A
C2034      C2035   1.398       .  A
C2034      H2043   1.083       .  S
C2035      C2036   1.402   1_455  A
C2035      H2044   1.084   1_455  S
C2036      C2042   1.408       .  A
C2036      C2037   1.414       .  A
C2037      C2039   1.403       .  A
C2037      C2038   1.410   1_655  A
C2038      H2045   1.084       .  S
C2039      C2040   1.401       .  A
C2039      H2046   1.084       .  S
C2040      C2041   1.407       .  A
C2040      H2047   1.083       .  S
C2041      C2042   1.408       .  A
C2042      H2048   1.084       .  S
C2049      C2050   1.405       .  A
C2049      C2054   1.410       .  A
C2050      C2051   1.396       .  A
C2050      H2059   1.083       .  S
C2051      C2052   1.401       .  A
C2051      H2060   1.084       .  S
C2052      C2058   1.405       .  A
C2052      C2053   1.414       .  A
C2053      C2055   1.404       .  A
C2053      C2054   1.410       .  A
C2054      H2061   1.084       .  S
C2055      C2056   1.402       .  A
C2055      H2062   1.084       .  S
C2056      C2057   1.408       .  A
C2056      H2063   1.083       .  S
C2057      C2058   1.406       .  A
C2058      H2064   1.084       .  S
C2065      C2066   1.406       .  A
C2065      C2070   1.406       .  A
C2066      C2067   1.391       .  A
C2066      H2075   1.083       .  S
C2067      C2068   1.398       .  A
C2067      H2076   1.084       .  S
C2068      C2074   1.398       .  A
C2068      C2069   1.414       .  A
C2069      C2071   1.403       .  A
C2069      C2070   1.406       .  A
C2070      H2077   1.084       .  S
C2071      C2072   1.400       .  A
C2071      H2078   1.083       .  S
C2072      C2073   1.406       .  A
C2072      H2079   1.083       .  S
C2073      C2074   1.402       .  A
C2074      H2080   1.084       .  S
C2081      C2082   1.406       .  A
C2081      C2086   1.408       .  A
C2082      C2083   1.401       .  A
C2082      H2091   1.083       .  S
C2083      C2084   1.404       .  A
C2083      H2092   1.083       .  S
C2084      C2090   1.409       .  A
C2084      C2085   1.414       .  A
C2085      C2087   1.402       .  A
C2085      C2086   1.406       .  A
C2086      H2093   1.084       .  S
C2087      C2088   1.398       .  A
C2087      H2094   1.084       .  S
C2088      C2089   1.406       .  A
C2088      H2095   1.083       .  S
C2089      C2090   1.409       .  A
C2090      H2096   1.084       .  S
C2097      C2098   1.406       .  A
C2097      C2102   1.406       .  A
C2098      C2099   1.397       .  A
C2098      H2107   1.083       .  S
C2099      C2100   1.401       .  A
C2099      H2108   1.084       .  S
C2100      C2106   1.404       .  A
C2100      C2101   1.414       .  A
C2101      C2103   1.402       .  A
C2101      C2102   1.405       .  A
C2102      H2109   1.084       .  S
C2103      C2104   1.399       .  A
C2103      H2110   1.084       .  S
C2104      C2105   1.406       .  A
C2104      H2111   1.083       .  S
C2105      C2106   1.407       .  A
C2106      H2112   1.084       .  S
C2113      C2114   1.406       .  A
C2113      C2118   1.406       .  A
C2114      C2115   1.398       .  A
C2114      H2123   1.083       .  S
C2115      C2116   1.402   1_655  A
C2115      H2124   1.083   1_655  S
C2116      C2122   1.406       .  A
C2116      C2117   1.414   1_455  A
C2117      C2119   1.401   1_655  A
C2117      C2118   1.404       .  A
C2118      H2125   1.084       .  S
C2119      C2120   1.397       .  A
C2119      H2126   1.083       .  S
C2120      C2121   1.406       .  A
C2120      H2127   1.083       .  S
C2121      C2122   1.407       .  A
C2122      H2128   1.084       .  S
C2129      C2130   1.406       .  A
C2129      C2134   1.405       .  A
C2130      C2131   1.398       .  A
C2130      H2139   1.083       .  S
C2131      C2132   1.402       .  A
C2131      H2140   1.084       .  S
C2132      C2138   1.405       .  A
C2132      C2133   1.414       .  A
C2133      C2135   1.401       .  A
C2133      C2134   1.404       .  A
C2134      H2141   1.084       .  S
C2135      C2136   1.396       .  A
C2135      H2142   1.084       .  S
C2136      C2137   1.406       .  A
C2136      H2143   1.083       .  S
C2137      C2138   1.406       .  A
C2138      H2144   1.084       .  S
C2145      C2146   1.406       .  A
C2145      C2150   1.408       .  A
C2146      C2147   1.395       .  A
C2146      H2155   1.083       .  S
C2147      C2148   1.400       .  A
C2147      H2156   1.084       .  S
C2148      C2154   1.403       .  A
C2148      C2149   1.414       .  A
C2149      C2151   1.404       .  A
C2149      C2150   1.408       .  A
C2150      H2157   1.084       .  S
C2151      C2152   1.400       .  A
C2151      H2158   1.083       .  S
C2152      C2153   1.406       .  A
C2152      H2159   1.083       .  S
C2153      C2154   1.405       .  A
C2154      H2160   1.084       .  S
C2161      C2162   1.405       .  A
C2161      C2166   1.408       .  A
C2162      C2163   1.393       .  A
C2162      H2171   1.083       .  S
C2163      C2164   1.400       .  A
C2163      H2172   1.084       .  S
C2164      C2170   1.400       .  A
C2164      C2165   1.414       .  A
C2165      C2167   1.404       .  A
C2165      C2166   1.407       .  A
C2166      H2173   1.084       .  S
C2167      C2168   1.401       .  A
C2167      H2174   1.083       .  S
C2168      C2169   1.405       .  A
C2168      H2175   1.083       .  S
C2169      C2170   1.404       .  A
C2170      H2176   1.084       .  S
C2177      C2178   1.406       .  A
C2177      C2182   1.408       .  A
C2178      C2179   1.396       .  A
C2178      H2187   1.083       .  S
C2179      C2180   1.401       .  A
C2179      H2188   1.083       .  S
C2180      C2186   1.405       .  A
C2180      C2181   1.414       .  A
C2181      C2183   1.403       .  A
C2181      C2182   1.408       .  A
C2182      H2189   1.084       .  S
C2183      C2184   1.400       .  A
C2183      H2190   1.083       .  S
C2184      C2185   1.407       .  A
C2184      H2191   1.083       .  S
C2185      C2186   1.406       .  A
C2186      H2192   1.084       .  S
C2193      C2194   1.406       .  A
C2193      C2198   1.410       .  A
C2194      C2195   1.393       .  A
C2194      H2203   1.083       .  S
C2195      C2196   1.399       .  A
C2195      H2204   1.084       .  S
C2196      C2202   1.400       .  A
C2196      C2197   1.413       .  A
C2197      C2199   1.406       .  A
C2197      C2198   1.410       .  A
C2198      H2205   1.084       .  S
C2199      C2200   1.403       .  A
C2199      H2206   1.083       .  S
C2200      C2201   1.406       .  A
C2200      H2207   1.083       .  S
C2201      C2202   1.404       .  A
C2202      H2208   1.084       .  S
C2209      C2210   1.406       .  A
C2209      C2214   1.407       .  A
C2210      C2211   1.399       .  A
C2210      H2219   1.083       .  S
C2211      C2212   1.402       .  A
C2211      H2220   1.084       .  S
C2212      C2218   1.407       .  A
C2212      C2213   1.414       .  A
C2213      C2215   1.402       .  A
C2213      C2214   1.407       .  A
C2214      H2221   1.084       .  S
C2215      C2216   1.398       .  A
C2215      H2222   1.084       .  S
C2216      C2217   1.406       .  A
C2216      H2223   1.083       .  S
C2217      C2218   1.407       .  A
C2218      H2224   1.084       .  S
C2225      C2226   1.406       .  A
C2225      C2230   1.409       .  A
C2226      C2227   1.395       .  A
C2226      H2235   1.083       .  S
C2227      C2228   1.400       .  A
C2227      H2236   1.084       .  S
C2228      C2234   1.402       .  A
C2228      C2229   1.414       .  A
C2229      C2231   1.405       .  A
C2229      C2230   1.409       .  A
C2230      H2237   1.084       .  S
C2231      C2232   1.402       .  A
C2231      H2238   1.084       .  S
C2232      C2233   1.406       .  A
C2232      H2239   1.083       .  S
C2233      C2234   1.405       .  A
C2234      H2240   1.084       .  S
C2241      C2242   1.407       .  A
C2241      C2246   1.406       .  A
C2242      C2243   1.399       .  A
C2242      H2251   1.083       .  S
C2243      C2244   1.402       .  A
C2243      H2252   1.084       .  S
C2244      C2250   1.407       .  A
C2244      C2245   1.414       .  A
C2245      C2247   1.401       .  A
C2245      C2246   1.405       .  A
C2246      H2253   1.084       .  S
C2247      C2248   1.397       .  A
C2247      H2254   1.084       .  S
C2248      C2249   1.406       .  A
C2248      H2255   1.083       .  S
C2249      C2250   1.407       .  A
C2250      H2256   1.084       .  S
C2257      C2258   1.406       .  A
C2257      C2262   1.406       .  A
C2258      C2259   1.400       .  A
C2258      H2267   1.083       .  S
C2259      C2260   1.403       .  A
C2259      H2268   1.083       .  S
C2260      C2266   1.408       .  A
C2260      C2261   1.414       .  A
C2261      C2263   1.401       .  A
C2261      C2262   1.404       .  A
C2262      H2269   1.084       .  S
C2263      C2264   1.396       .  A
C2263      H2270   1.084       .  S
C2264      C2265   1.406       .  A
C2264      H2271   1.083       .  S
C2265      C2266   1.407       .  A
C2266      H2272   1.084       .  S
C2273      C2274   1.406       .  A
C2273      C2278   1.408       .  A
C2274      C2275   1.399       .  A
C2274      H2283   1.083       .  S
C2275      C2276   1.403   1_455  A
C2275      H2284   1.084   1_455  S
C2276      C2282   1.408       .  A
C2276      C2277   1.414       .  A
C2277      C2279   1.402       .  A
C2277      C2278   1.407   1_655  A
C2278      H2285   1.084       .  S
C2279      C2280   1.399       .  A
C2279      H2286   1.084       .  S
C2280      C2281   1.407       .  A
C2280      H2287   1.083       .  S
C2281      C2282   1.408       .  A
C2282      H2288   1.084       .  S
C2289      C2290   1.406       .  A
C2289      C2294   1.408       .  A
C2290      C2291   1.398       .  A
C2290      H2299   1.083       .  S
C2291      C2292   1.402       .  A
C2291      H2300   1.084       .  S
C2292      C2298   1.407       .  A
C2292      C2293   1.414       .  A
C2293      C2295   1.403       .  A
C2293      C2294   1.408       .  A
C2294      H2301   1.084       .  S
C2295      C2296   1.399       .  A
C2295      H2302   1.084       .  S
C2296      C2297   1.407       .  A
C2296      H2303   1.083       .  S
C2297      C2298   1.407       .  A
C2298      H2304   1.084       .  S
C2305      C2306   1.406       .  A
C2305      C2310   1.405       .  A
C2306      C2307   1.400       .  A
C2306      H2315   1.083       .  S
C2307      C2308   1.404       .  A
C2307      H2316   1.083       .  S
C2308      C2314   1.406       .  A
C2308      C2309   1.413       .  A
C2309      C2311   1.400       .  A
C2309      C2310   1.401       .  A
C2310      H2317   1.084       .  S
C2311      C2312   1.394       .  A
C2311      H2318   1.084       .  S
C2312      C2313   1.405       .  A
C2312      H2319   1.083       .  S
C2313      C2314   1.408       .  A
C2314      H2320   1.084       .  S
C2321      C2322   1.406       .  A
C2321      C2326   1.409       .  A
C2322      C2323   1.400       .  A
C2322      H2331   1.083       .  S
C2323      C2324   1.403       .  A
C2323      H2332   1.083       .  S
C2324      C2330   1.409       .  A
C2324      C2325   1.414       .  A
C2325      C2327   1.402       .  A
C2325      C2326   1.408       .  A
C2326      H2333   1.084       .  S
C2327      C2328   1.399       .  A
C2327      H2334   1.084       .  S
C2328      C2329   1.406       .  A
C2328      H2335   1.083       .  S
C2329      C2330   1.409       .  A
C2330      H2336   1.084       .  S
C2337      C2338   1.407       .  A
C2337      C2342   1.408       .  A
C2338      C2339   1.398       .  A
C2338      H2347   1.083       .  S
C2339      C2340   1.402       .  A
C2339      H2348   1.084       .  S
C2340      C2346   1.406       .  A
C2340      C2341   1.414       .  A
C2341      C2343   1.404       .  A
C2341      C2342   1.410       .  A
C2342      H2349   1.084       .  S
C2343      C2344   1.401       .  A
C2343      H2350   1.083       .  S
C2344      C2345   1.406       .  A
C2344      H2351   1.083       .  S
C2345      C2346   1.408       .  A
C2346      H2352   1.084       .  S
C2353      C2354   1.405       .  A
C2353      C2358   1.407       .  A
C2354      C2355   1.397       .  A
C2354      H2363   1.083       .  S
C2355      C2356   1.401       .  A
C2355      H2364   1.084       .  S
C2356      C2362   1.404       .  A
C2356      C2357   1.414       .  A
C2357      C2359   1.402       .  A
C2357      C2358   1.406       .  A
C2358      H2365   1.084       .  S
C2359      C2360   1.398       .  A
C2359      H2366   1.084       .  S
C2360      C2361   1.407       .  A
C2360      H2367   1.083       .  S
C2361      C2362   1.405       .  A
C2362      H2368   1.084       .  S
C2369      C2370   1.406       .  A
C2369      C2374   1.405       .  A
C2370      C2371   1.398       .  A
C2370      H2379   1.083       .  S
C2371      C2372   1.402       .  A
C2371      H2380   1.084       .  S
C2372      C2378   1.406       .  A
C2372      C2373   1.414       .  A
C2373      C2375   1.400       .  A
C2373      C2374   1.403       .  A
C2374      H2381   1.084       .  S
C2375      C2376   1.395       .  A
C2375      H2382   1.084       .  S
C2376      C2377   1.406       .  A
C2376      H2383   1.083       .  S
C2377      C2378   1.406       .  A
C2378      H2384   1.084       .  S
C2385      C2386   1.407       .  A
C2385      C2390   1.405       .  A
C2386      C2387   1.401       .  A
C2386      H2395   1.083       .  S
C2387      C2388   1.404       .  A
C2387      H2396   1.083       .  S
C2388      C2394   1.408       .  A
C2388      C2389   1.414       .  A
C2389      C2391   1.400       .  A
C2389      C2390   1.403       .  A
C2390      H2397   1.084       .  S
C2391      C2392   1.394       .  A
C2391      H2398   1.083       .  S
C2392      C2393   1.405       .  A
C2392      H2399   1.083       .  S
C2393      C2394   1.407       .  A
C2394      H2400   1.084       .  S
C2401      C2402   1.407       .  A
C2401      C2406   1.405       .  A
C2402      C2403   1.402       .  A
C2402      H2411   1.083       .  S
C2403      C2404   1.404       .  A
C2403      H2412   1.083       .  S
C2404      C2410   1.410       .  A
C2404      C2405   1.414       .  A
C2405      C2407   1.399       .  A
C2405      C2406   1.404       .  A
C2406      H2413   1.084       .  S
C2407      C2408   1.394       .  A
C2407      H2414   1.084       .  S
C2408      C2409   1.406       .  A
C2408      H2415   1.083       .  S
C2409      C2410   1.409       .  A
C2410      H2416   1.084       .  S
C2417      C2418   1.405       .  A
C2417      C2422   1.407       .  A
C2418      C2419   1.394       .  A
C2418      H2427   1.083       .  S
C2419      C2420   1.400       .  A
C2419      H2428   1.083       .  S
C2420      C2426   1.400       .  A
C2420      C2421   1.413       .  A
C2421      C2423   1.403       .  A
C2421      C2422   1.405       .  A
C2422      H2429   1.084       .  S
C2423      C2424   1.400       .  A
C2423      H2430   1.083       .  S
C2424      C2425   1.405       .  A
C2424      H2431   1.083       .  S
C2425      C2426   1.405       .  A
C2426      H2432   1.084       .  S
C2433      C2434   1.407       .  A
C2433      C2438   1.407       .  A
C2434      C2435   1.398       .  A
C2434      H2443   1.083       .  S
C2435      C2436   1.401       .  A
C2435      H2444   1.084       .  S
C2436      C2442   1.407       .  A
C2436      C2437   1.415       .  A
C2437      C2439   1.401       .  A
C2437      C2438   1.407       .  A
C2438      H2445   1.084       .  S
C2439      C2440   1.397       .  A
C2439      H2446   1.084       .  S
C2440      C2441   1.407       .  A
C2440      H2447   1.083       .  S
C2441      C2442   1.406       .  A
C2442      H2448   1.084       .  S
C2449      C2450   1.405       .  A
C2449      C2454   1.407       .  A
C2450      C2451   1.395       .  A
C2450      H2459   1.083       .  S
C2451      C2452   1.401   1_565  A
C2451      H2460   1.084       .  S
C2452      C2458   1.402       .  A
C2452      C2453   1.414   1_545  A
C2453      C2455   1.403   1_565  A
C2453      C2454   1.406       .  A
C2454      H2461   1.084       .  S
C2455      C2456   1.399       .  A
C2455      H2462   1.083   1_545  S
C2456      C2457   1.406       .  A
C2456      H2463   1.083       .  S
C2457      C2458   1.406       .  A
C2458      H2464   1.084       .  S
C2465      C2466   1.406       .  A
C2465      C2470   1.406       .  A
C2466      C2467   1.401       .  A
C2466      H2475   1.083       .  S
C2467      C2468   1.404       .  A
C2467      H2476   1.083       .  S
C2468      C2474   1.408       .  A
C2468      C2469   1.414       .  A
C2469      C2471   1.401       .  A
C2469      C2470   1.404       .  A
C2470      H2477   1.084       .  S
C2471      C2472   1.395       .  A
C2471      H2478   1.084       .  S
C2472      C2473   1.406       .  A
C2472      H2479   1.083       .  S
C2473      C2474   1.408       .  A
C2474      H2480   1.084       .  S
C2481      C2482   1.407       .  A
C2481      C2486   1.407       .  A
C2482      C2483   1.395       .  A
C2482      H2491   1.083       .  S
C2483      C2484   1.400       .  A
C2483      H2492   1.084       .  S
C2484      C2490   1.404       .  A
C2484      C2485   1.415       .  A
C2485      C2487   1.402       .  A
C2485      C2486   1.408       .  A
C2486      H2493   1.084       .  S
C2487      C2488   1.399       .  A
C2487      H2494   1.083       .  S
C2488      C2489   1.406       .  A
C2488      H2495   1.083       .  S
C2489      C2490   1.406       .  A
C2490      H2496   1.084       .  S
C2497      C2498   1.406       .  A
C2497      C2502   1.406       .  A
C2498      C2499   1.399       .  A
C2498      H2507   1.083       .  S
C2499      C2500   1.403       .  A
C2499      H2508   1.084       .  S
C2500      C2506   1.406       .  A
C2500      C2501   1.414       .  A
C2501      C2503   1.401       .  A
C2501      C2502   1.403       .  A
C2502      H2509   1.084       .  S
C2503      C2504   1.395       .  A
C2503      H2510   1.084       .  S
C2504      C2505   1.406       .  A
C2504      H2511   1.083       .  S
C2505      C2506   1.407       .  A
C2506      H2512   1.084       .  S
C2513      C2514   1.406       .  A
C2513      C2518   1.408       .  A
C2514      C2515   1.398       .  A
C2514      H2523   1.083       .  S
C2515      C2516   1.402   1_545  A
C2515      H2524   1.084       .  S
C2516      C2522   1.405       .  A
C2516      C2517   1.413   1_565  A
C2517      C2519   1.403   1_545  A
C2517      C2518   1.407       .  A
C2518      H2525   1.084       .  S
C2519      C2520   1.399       .  A
C2519      H2526   1.084       .  S
C2520      C2521   1.406       .  A
C2520      H2527   1.083       .  S
C2521      C2522   1.407       .  A
C2522      H2528   1.084       .  S
C2529      C2530   1.406       .  A
C2529      C2534   1.408       .  A
C2530      C2531   1.398       .  A
C2530      H2539   1.083       .  S
C2531      C2532   1.402       .  A
C2531      H2540   1.084       .  S
C2532      C2538   1.407       .  A
C2532      C2533   1.414       .  A
C2533      C2535   1.403       .  A
C2533      C2534   1.408       .  A
C2534      H2541   1.084       .  S
C2535      C2536   1.399       .  A
C2535      H2542   1.084       .  S
C2536      C2537   1.407       .  A
C2536      H2543   1.083       .  S
C2537      C2538   1.407       .  A
C2538      H2544   1.084       .  S
C2545      C2546   1.406       .  A
C2545      C2550   1.410       .  A
C2546      C2547   1.395       .  A
C2546      H2555   1.083       .  S
C2547      C2548   1.400       .  A
C2547      H2556   1.084       .  S
C2548      C2554   1.403       .  A
C2548      C2549   1.413       .  A
C2549      C2551   1.405       .  A
C2549      C2550   1.410       .  A
C2550      H2557   1.084       .  S
C2551      C2552   1.403       .  A
C2551      H2558   1.083       .  S
C2552      C2553   1.406       .  A
C2552      H2559   1.083       .  S
C2553      C2554   1.406       .  A
C2554      H2560   1.084       .  S
C2561      C2562   1.405       .  A
C2561      C2566   1.409       .  A
C2562      C2563   1.395       .  A
C2562      H2571   1.083       .  S
C2563      C2564   1.400       .  A
C2563      H2572   1.084       .  S
C2564      C2570   1.402       .  A
C2564      C2565   1.414       .  A
C2565      C2567   1.405       .  A
C2565      C2566   1.409       .  A
C2566      H2573   1.084       .  S
C2567      C2568   1.402       .  A
C2567      H2574   1.084       .  S
C2568      C2569   1.406       .  A
C2568      H2575   1.083       .  S
C2569      C2570   1.405       .  A
C2570      H2576   1.084       .  S
C2577      C2578   1.407       .  A
C2577      C2582   1.407       .  A
C2578      C2579   1.401   1_655  A
C2578      H2587   1.083       .  S
C2579      C2580   1.404       .  A
C2579      H2588   1.083       .  S
C2580      C2586   1.409       .  A
C2580      C2581   1.414       .  A
C2581      C2583   1.401       .  A
C2581      C2582   1.405   1_455  A
C2582      H2589   1.084       .  S
C2583      C2584   1.397       .  A
C2583      H2590   1.084       .  S
C2584      C2585   1.406       .  A
C2584      H2591   1.083       .  S
C2585      C2586   1.409       .  A
C2586      H2592   1.084       .  S
C2593      C2594   1.406       .  A
C2593      C2598   1.407       .  A
C2594      C2595   1.399       .  A
C2594      H2603   1.083       .  S
C2595      C2596   1.403       .  A
C2595      H2604   1.084       .  S
C2596      C2602   1.407       .  A
C2596      C2597   1.414       .  A
C2597      C2599   1.402       .  A
C2597      C2598   1.405       .  A
C2598      H2605   1.084       .  S
C2599      C2600   1.398       .  A
C2599      H2606   1.084       .  S
C2600      C2601   1.406       .  A
C2600      H2607   1.083       .  S
C2601      C2602   1.407       .  A
C2602      H2608   1.084       .  S
C2609      C2610   1.407       .  A
C2609      C2614   1.410       .  A
C2610      C2611   1.393       .  A
C2610      H2619   1.083       .  S
C2611      C2612   1.399       .  A
C2611      H2620   1.084       .  S
C2612      C2618   1.402       .  A
C2612      C2613   1.414       .  A
C2613      C2615   1.405       .  A
C2613      C2614   1.411       .  A
C2614      H2621   1.084       .  S
C2615      C2616   1.403       .  A
C2615      H2622   1.083       .  S
C2616      C2617   1.407       .  A
C2616      H2623   1.083       .  S
C2617      C2618   1.405       .  A
C2618      H2624   1.084       .  S
C2625      C2626   1.407       .  A
C2625      C2630   1.408       .  A
C2626      C2627   1.398       .  A
C2626      H2635   1.083       .  S
C2627      C2628   1.402       .  A
C2627      H2636   1.083       .  S
C2628      C2634   1.408       .  A
C2628      C2629   1.414       .  A
C2629      C2631   1.402       .  A
C2629      C2630   1.408       .  A
C2630      H2637   1.084       .  S
C2631      C2632   1.399       .  A
C2631      H2638   1.084       .  S
C2632      C2633   1.407       .  A
C2632      H2639   1.083       .  S
C2633      C2634   1.407       .  A
C2634      H2640   1.084       .  S
C2641      C2642   1.405       .  A
C2641      C2646   1.410       .  A
C2642      C2643   1.392       .  A
C2642      H2651   1.083       .  S
C2643      C2644   1.399       .  A
C2643      H2652   1.084       .  S
C2644      C2650   1.399       .  A
C2644      C2645   1.414       .  A
C2645      C2647   1.406       .  A
C2645      C2646   1.410       .  A
C2646      H2653   1.084       .  S
C2647      C2648   1.403       .  A
C2647      H2654   1.083       .  S
C2648      C2649   1.406       .  A
C2648      H2655   1.083       .  S
C2649      C2650   1.404       .  A
C2650      H2656   1.084       .  S
C2657      C2658   1.406       .  A
C2657      C2662   1.407       .  A
C2658      C2659   1.394       .  A
C2658      H2667   1.083       .  S
C2659      C2660   1.399       .  A
C2659      H2668   1.084       .  S
C2660      C2666   1.402       .  A
C2660      C2661   1.414       .  A
C2661      C2663   1.404       .  A
C2661      C2662   1.409       .  A
C2662      H2669   1.084       .  S
C2663      C2664   1.400       .  A
C2663      H2670   1.083       .  S
C2664      C2665   1.405       .  A
C2664      H2671   1.083       .  S
C2665      C2666   1.405       .  A
C2666      H2672   1.084       .  S
C2673      C2674   1.405       .  A
C2673      C2678   1.405       .  A
C2674      C2675   1.399       .  A
C2674      H2683   1.083       .  S
C2675      C2676   1.403       .  A
C2675      H2684   1.083       .  S
C2676      C2682   1.404       .  A
C2676      C2677   1.413       .  A
C2677      C2679   1.401       .  A
C2677      C2678   1.401       .  A
C2678      H2685   1.084       .  S
C2679      C2680   1.395       .  A
C2679      H2686   1.083       .  S
C2680      C2681   1.406       .  A
C2680      H2687   1.083       .  S
C2681      C2682   1.406       .  A
C2682      H2688   1.084       .  S
C2689      C2690   1.405       .  A
C2689      C2694   1.408       .  A
C2690      C2691   1.398       .  A
C2690      H2699   1.083       .  S
C2691      C2692   1.402       .  A
C2691      H2700   1.083       .  S
C2692      C2698   1.406       .  A
C2692      C2693   1.414       .  A
C2693      C2695   1.402       .  A
C2693      C2694   1.406       .  A
C2694      H2701   1.084       .  S
C2695      C2696   1.399       .  A
C2695      H2702   1.083       .  S
C2696      C2697   1.407       .  A
C2696      H2703   1.083       .  S
C2697      C2698   1.406       .  A
C2698      H2704   1.084       .  S
C2705      C2706   1.405       .  A
C2705      C2710   1.407       .  A
C2706      C2707   1.398       .  A
C2706      H2715   1.083       .  S
C2707      C2708   1.403       .  A
C2707      H2716   1.083       .  S
C2708      C2714   1.404       .  A
C2708      C2709   1.413       .  A
C2709      C2711   1.402       .  A
C2709      C2710   1.403       .  A
C2710      H2717   1.084       .  S
C2711      C2712   1.397       .  A
C2711      H2718   1.084       .  S
C2712      C2713   1.405       .  A
C2712      H2719   1.083       .  S
C2713      C2714   1.407       .  A
C2714      H2720   1.084       .  S
C2721      C2722   1.406       .  A
C2721      C2726   1.407       .  A
C2722      C2723   1.394       .  A
C2722      H2731   1.083       .  S
C2723      C2724   1.400       .  A
C2723      H2732   1.084       .  S
C2724      C2730   1.401       .  A
C2724      C2725   1.414       .  A
C2725      C2727   1.403       .  A
C2725      C2726   1.406       .  A
C2726      H2733   1.084       .  S
C2727      C2728   1.400       .  A
C2727      H2734   1.083       .  S
C2728      C2729   1.405       .  A
C2728      H2735   1.083       .  S
C2729      C2730   1.405       .  A
C2730      H2736   1.084       .  S
C2737      C2738   1.406       .  A
C2737      C2742   1.408       .  A
C2738      C2739   1.396   1_556  A
C2738      H2747   1.083       .  S
C2739      C2740   1.401       .  A
C2739      H2748   1.084       .  S
C2740      C2746   1.404       .  A
C2740      C2741   1.414       .  A
C2741      C2743   1.403       .  A
C2741      C2742   1.406   1_554  A
C2742      H2749   1.084       .  S
C2743      C2744   1.399       .  A
C2743      H2750   1.084       .  S
C2744      C2745   1.407       .  A
C2744      H2751   1.083       .  S
C2745      C2746   1.405       .  A
C2746      H2752   1.084       .  S
C2753      C2754   1.406       .  A
C2753      C2758   1.408       .  A
C2754      C2755   1.399       .  A
C2754      H2763   1.083       .  S
C2755      C2756   1.403       .  A
C2755      H2764   1.084       .  S
C2756      C2762   1.407       .  A
C2756      C2757   1.414       .  A
C2757      C2759   1.402       .  A
C2757      C2758   1.406       .  A
C2758      H2765   1.084       .  S
C2759      C2760   1.398       .  A
C2759      H2766   1.084       .  S
C2760      C2761   1.406       .  A
C2760      H2767   1.083       .  S
C2761      C2762   1.408       .  A
C2762      H2768   1.084       .  S
C2769      C2770   1.406       .  A
C2769      C2774   1.405       .  A
C2770      C2771   1.401       .  A
C2770      H2779   1.083       .  S
C2771      C2772   1.404       .  A
C2771      H2780   1.083       .  S
C2772      C2778   1.410       .  A
C2772      C2773   1.414       .  A
C2773      C2775   1.399       .  A
C2773      C2774   1.403       .  A
C2774      H2781   1.084       .  S
C2775      C2776   1.394       .  A
C2775      H2782   1.084       .  S
C2776      C2777   1.406       .  A
C2776      H2783   1.083       .  S
C2777      C2778   1.409       .  A
C2778      H2784   1.084       .  S
C2785      C2786   1.406       .  A
C2785      C2790   1.406       .  A
C2786      C2787   1.402       .  A
C2786      H2795   1.083       .  S
C2787      C2788   1.405       .  A
C2787      H2796   1.083       .  S
C2788      C2794   1.410       .  A
C2788      C2789   1.413       .  A
C2789      C2791   1.400       .  A
C2789      C2790   1.403       .  A
C2790      H2797   1.084       .  S
C2791      C2792   1.395       .  A
C2791      H2798   1.084       .  S
C2792      C2793   1.406       .  A
C2792      H2799   1.083       .  S
C2793      C2794   1.410       .  A
C2794      H2800   1.084       .  S
C2801      C2802   1.406       .  A
C2801      C2806   1.405       .  A
C2802      C2803   1.401       .  A
C2802      H2811   1.083       .  S
C2803      C2804   1.404       .  A
C2803      H2812   1.084       .  S
C2804      C2810   1.408       .  A
C2804      C2805   1.414       .  A
C2805      C2807   1.400       .  A
C2805      C2806   1.402       .  A
C2806      H2813   1.084       .  S
C2807      C2808   1.394       .  A
C2807      H2814   1.084       .  S
C2808      C2809   1.406       .  A
C2808      H2815   1.083       .  S
C2809      C2810   1.408       .  A
C2810      H2816   1.084       .  S
C2817      C2818   1.406       .  A
C2817      C2822   1.406       .  A
C2818      C2819   1.394       .  A
C2818      H2827   1.083       .  S
C2819      C2820   1.400       .  A
C2819      H2828   1.083       .  S
C2820      C2826   1.400       .  A
C2820      C2821   1.414       .  A
C2821      C2823   1.403       .  A
C2821      C2822   1.405       .  A
C2822      H2829   1.084       .  S
C2823      C2824   1.399       .  A
C2823      H2830   1.083       .  S
C2824      C2825   1.405       .  A
C2824      H2831   1.083       .  S
C2825      C2826   1.404       .  A
C2826      H2832   1.084       .  S
C2833      C2834   1.405       .  A
C2833      C2838   1.408       .  A
C2834      C2835   1.398       .  A
C2834      H2843   1.083       .  S
C2835      C2836   1.402       .  A
C2835      H2844   1.084       .  S
C2836      C2842   1.406       .  A
C2836      C2837   1.414       .  A
C2837      C2839   1.403       .  A
C2837      C2838   1.406       .  A
C2838      H2845   1.084       .  S
C2839      C2840   1.399       .  A
C2839      H2846   1.084       .  S
C2840      C2841   1.407       .  A
C2840      H2847   1.083       .  S
C2841      C2842   1.406       .  A
C2842      H2848   1.084       .  S
C2849      C2850   1.406       .  A
C2849      C2854   1.408       .  A
C2850      C2851   1.395       .  A
C2850      H2859   1.083       .  S
C2851      C2852   1.400       .  A
C2851      H2860   1.084       .  S
C2852      C2858   1.403       .  A
C2852      C2853   1.414       .  A
C2853      C2855   1.404       .  A
C2853      C2854   1.409       .  A
C2854      H2861   1.084       .  S
C2855      C2856   1.401       .  A
C2855      H2862   1.084       .  S
C2856      C2857   1.406       .  A
C2856      H2863   1.083       .  S
C2857      C2858   1.405       .  A
C2858      H2864   1.084       .  S
C2865      C2866   1.406       .  A
C2865      C2870   1.408       .  A
C2866      C2867   1.390       .  A
C2866      H2875   1.083       .  S
C2867      C2868   1.397       .  A
C2867      H2876   1.084       .  S
C2868      C2874   1.398       .  A
C2868      C2869   1.414       .  A
C2869      C2871   1.405       .  A
C2869      C2870   1.409       .  A
C2870      H2877   1.084       .  S
C2871      C2872   1.403       .  A
C2871      H2878   1.084       .  S
C2872      C2873   1.407       .  A
C2872      H2879   1.083       .  S
C2873      C2874   1.402       .  A
C2874      H2880   1.084       .  S
C2881      C2882   1.406       .  A
C2881      C2886   1.408       .  A
C2882      C2883   1.396       .  A
C2882      H2891   1.083       .  S
C2883      C2884   1.401       .  A
C2883      H2892   1.084       .  S
C2884      C2890   1.404       .  A
C2884      C2885   1.414       .  A
C2885      C2887   1.403       .  A
C2885      C2886   1.407       .  A
C2886      H2893   1.084       .  S
C2887      C2888   1.400       .  A
C2887      H2894   1.084       .  S
C2888      C2889   1.406       .  A
C2888      H2895   1.083       .  S
C2889      C2890   1.406       .  A
C2890      H2896   1.084       .  S
C2897      C2898   1.406       .  A
C2897      C2902   1.403       .  A
C2898      C2899   1.401       .  A
C2898      H2907   1.083       .  S
C2899      C2900   1.404       .  A
C2899      H2908   1.083       .  S
C2900      C2906   1.407       .  A
C2900      C2901   1.414       .  A
C2901      C2903   1.399       .  A
C2901      C2902   1.400       .  A
C2902      H2909   1.084       .  S
C2903      C2904   1.393       .  A
C2903      H2910   1.084       .  S
C2904      C2905   1.406       .  A
C2904      H2911   1.083       .  S
C2905      C2906   1.407       .  A
C2906      H2912   1.084       .  S
C2913      C2914   1.406       .  A
C2913      C2918   1.406       .  A
C2914      C2915   1.397       .  A
C2914      H2923   1.083       .  S
C2915      C2916   1.402       .  A
C2915      H2924   1.084       .  S
C2916      C2922   1.405       .  A
C2916      C2917   1.414       .  A
C2917      C2919   1.402       .  A
C2917      C2918   1.405       .  A
C2918      H2925   1.084       .  S
C2919      C2920   1.398       .  A
C2919      H2926   1.084       .  S
C2920      C2921   1.405       .  A
C2920      H2927   1.083       .  S
C2921      C2922   1.407       .  A
C2922      H2928   1.084       .  S
C2929      C2930   1.407       .  A
C2929      C2934   1.408       .  A
C2930      C2931   1.400       .  A
C2930      H2939   1.083       .  S
C2931      C2932   1.403       .  A
C2931      H2940   1.084       .  S
C2932      C2938   1.410   1_554  A
C2932      C2933   1.414       .  A
C2933      C2935   1.402       .  A
C2933      C2934   1.409       .  A
C2934      H2941   1.084       .  S
C2935      C2936   1.399   1_554  A
C2935      H2942   1.084       .  S
C2936      C2937   1.407       .  A
C2936      H2943   1.083       .  S
C2937      C2938   1.408       .  A
C2938      H2944   1.084       .  S
C2945      C2946   1.406       .  A
C2945      C2950   1.407       .  A
C2946      C2947   1.398       .  A
C2946      H2955   1.083       .  S
C2947      C2948   1.401       .  A
C2947      H2956   1.083       .  S
C2948      C2954   1.406       .  A
C2948      C2949   1.414       .  A
C2949      C2951   1.402       .  A
C2949      C2950   1.406       .  A
C2950      H2957   1.084       .  S
C2951      C2952   1.398       .  A
C2951      H2958   1.083       .  S
C2952      C2953   1.407       .  A
C2952      H2959   1.083       .  S
C2953      C2954   1.406       .  A
C2954      H2960   1.084       .  S
C2961      C2962   1.407       .  A
C2961      C2966   1.407       .  A
C2962      C2963   1.394       .  A
C2962      H2971   1.083       .  S
C2963      C2964   1.399       .  A
C2963      H2972   1.084       .  S
C2964      C2970   1.404       .  A
C2964      C2965   1.415       .  A
C2965      C2967   1.403       .  A
C2965      C2966   1.409       .  A
C2966      H2973   1.084       .  S
C2967      C2968   1.400       .  A
C2967      H2974   1.083       .  S
C2968      C2969   1.407       .  A
C2968      H2975   1.083       .  S
C2969      C2970   1.405       .  A
C2970      H2976   1.084       .  S
C2977      C2978   1.405       .  A
C2977      C2982   1.409       .  A
C2978      C2979   1.396       .  A
C2978      H2987   1.083       .  S
C2979      C2980   1.401       .  A
C2979      H2988   1.083       .  S
C2980      C2986   1.404       .  A
C2980      C2981   1.414       .  A
C2981      C2983   1.404       .  A
C2981      C2982   1.409       .  A
C2982      H2989   1.084       .  S
C2983      C2984   1.402       .  A
C2983      H2990   1.083       .  S
C2984      C2985   1.407       .  A
C2984      H2991   1.083       .  S
C2985      C2986   1.407       .  A
C2986      H2992   1.084       .  S
C2993      C2994   1.406       .  A
C2993      C2998   1.406       .  A
C2994      C2995   1.401       .  A
C2994      H3003   1.083       .  S
C2995      C2996   1.404       .  A
C2995      H3004   1.083       .  S
C2996      C3002   1.410       .  A
C2996      C2997   1.414       .  A
C2997      C2999   1.400       .  A
C2997      C2998   1.404       .  A
C2998      H3005   1.084       .  S
C2999      C3000   1.395       .  A
C2999      H3006   1.084       .  S
C3000      C3001   1.407       .  A
C3000      H3007   1.083       .  S
C3001      C3002   1.408       .  A
C3002      H3008   1.084       .  S
C3009      C3010   1.406       .  A
C3009      C3014   1.409       .  A
C3010      C3011   1.395       .  A
C3010      H3019   1.083       .  S
C3011      C3012   1.400   1_455  A
C3011      H3020   1.084   1_455  S
C3012      C3018   1.404       .  A
C3012      C3013   1.414   1_655  A
C3013      C3015   1.404   1_455  A
C3013      C3014   1.411       .  A
C3014      H3021   1.084       .  S
C3015      C3016   1.403       .  A
C3015      H3022   1.084       .  S
C3016      C3017   1.407       .  A
C3016      H3023   1.083       .  S
C3017      C3018   1.405       .  A
C3018      H3024   1.084       .  S
C3025      C3026   1.405       .  A
C3025      C3030   1.407       .  A
C3026      C3027   1.399       .  A
C3026      H3035   1.083       .  S
C3027      C3028   1.403       .  A
C3027      H3036   1.083       .  S
C3028      C3034   1.406       .  A
C3028      C3029   1.414       .  A
C3029      C3031   1.401       .  A
C3029      C3030   1.403       .  A
C3030      H3037   1.084       .  S
C3031      C3032   1.396       .  A
C3031      H3038   1.083       .  S
C3032      C3033   1.406       .  A
C3032      H3039   1.083       .  S
C3033      C3034   1.407       .  A
C3034      H3040   1.084       .  S
C3041      C3042   1.406       .  A
C3041      C3046   1.409       .  A
C3042      C3043   1.399       .  A
C3042      H3051   1.083       .  S
C3043      C3044   1.402   1_556  A
C3043      H3052   1.084   1_556  S
C3044      C3050   1.407       .  A
C3044      C3045   1.414   1_554  A
C3045      C3047   1.403   1_556  A
C3045      C3046   1.409       .  A
C3046      H3053   1.084       .  S
C3047      C3048   1.401       .  A
C3047      H3054   1.084       .  S
C3048      C3049   1.407       .  A
C3048      H3055   1.083       .  S
C3049      C3050   1.408       .  A
C3050      H3056   1.084       .  S
C3057      C3058   1.406       .  A
C3057      C3062   1.407       .  A
C3058      C3059   1.398       .  A
C3058      H3067   1.083       .  S
C3059      C3060   1.402       .  A
C3059      H3068   1.084       .  S
C3060      C3066   1.407       .  A
C3060      C3061   1.414       .  A
C3061      C3063   1.402       .  A
C3061      C3062   1.407       .  A
C3062      H3069   1.084       .  S
C3063      C3064   1.398       .  A
C3063      H3070   1.084       .  S
C3064      C3065   1.407       .  A
C3064      H3071   1.083       .  S
C3065      C3066   1.407       .  A
C3066      H3072   1.084       .  S
C3073      C3074   1.405       .  A
C3073      C3078   1.405       .  A
C3074      C3075   1.399       .  A
C3074      H3083   1.083       .  S
C3075      C3076   1.404       .  A
C3075      H3084   1.083       .  S
C3076      C3082   1.404       .  A
C3076      C3077   1.413       .  A
C3077      C3079   1.401       .  A
C3077      C3078   1.400       .  A
C3078      H3085   1.084       .  S
C3079      C3080   1.395       .  A
C3079      H3086   1.083       .  S
C3080      C3081   1.405       .  A
C3080      H3087   1.083       .  S
C3081      C3082   1.407       .  A
C3082      H3088   1.084       .  S
C3089      C3090   1.406       .  A
C3089      C3094   1.405       .  A
C3090      C3091   1.402       .  A
C3090      H3099   1.083       .  S
C3091      C3092   1.405       .  A
C3091      H3100   1.083       .  S
C3092      C3098   1.408       .  A
C3092      C3093   1.413       .  A
C3093      C3095   1.400       .  A
C3093      C3094   1.401       .  A
C3094      H3101   1.084       .  S
C3095      C3096   1.394       .  A
C3095      H3102   1.084       .  S
C3096      C3097   1.406       .  A
C3096      H3103   1.083       .  S
C3097      C3098   1.408       .  A
C3098      H3104   1.084       .  S
C3105      C3106   1.406       .  A
C3105      C3110   1.406       .  A
C3106      C3107   1.398       .  A
C3106      H3115   1.083       .  S
C3107      C3108   1.402       .  A
C3107      H3116   1.084       .  S
C3108      C3114   1.405       .  A
C3108      C3109   1.414       .  A
C3109      C3111   1.401       .  A
C3109      C3110   1.403       .  A
C3110      H3117   1.084       .  S
C3111      C3112   1.396       .  A
C3111      H3118   1.084       .  S
C3112      C3113   1.407       .  A
C3112      H3119   1.083       .  S
C3113      C3114   1.405       .  A
C3114      H3120   1.084       .  S
C3121      C3122   1.406       .  A
C3121      C3126   1.407       .  A
C3122      C3123   1.400       .  A
C3122      H3131   1.083       .  S
C3123      C3124   1.403   1_554  A
C3123      H3132   1.084       .  S
C3124      C3130   1.408       .  A
C3124      C3125   1.414   1_556  A
C3125      C3127   1.402   1_554  A
C3125      C3126   1.406       .  A
C3126      H3133   1.084       .  S
C3127      C3128   1.398       .  A
C3127      H3134   1.084   1_556  S
C3128      C3129   1.406       .  A
C3128      H3135   1.083       .  S
C3129      C3130   1.408       .  A
C3130      H3136   1.084       .  S
C3137      C3138   1.407       .  A
C3137      C3142   1.407       .  A
C3138      C3139   1.401       .  A
C3138      H3147   1.083       .  S
C3139      C3140   1.403       .  A
C3139      H3148   1.083       .  S
C3140      C3146   1.410       .  A
C3140      C3141   1.414       .  A
C3141      C3143   1.401       .  A
C3141      C3142   1.407       .  A
C3142      H3149   1.084       .  S
C3143      C3144   1.397       .  A
C3143      H3150   1.084       .  S
C3144      C3145   1.406       .  A
C3144      H3151   1.083       .  S
C3145      C3146   1.409       .  A
C3146      H3152   1.084       .  S
C3153      C3154   1.407       .  A
C3153      C3158   1.408       .  A
C3154      C3155   1.400       .  A
C3154      H3163   1.083       .  S
C3155      C3156   1.403       .  A
C3155      H3164   1.083       .  S
C3156      C3162   1.408       .  A
C3156      C3157   1.414       .  A
C3157      C3159   1.402       .  A
C3157      C3158   1.407       .  A
C3158      H3165   1.084       .  S
C3159      C3160   1.398       .  A
C3159      H3166   1.084       .  S
C3160      C3161   1.407       .  A
C3160      H3167   1.083       .  S
C3161      C3162   1.407       .  A
C3162      H3168   1.084       .  S
C3169      C3170   1.406       .  A
C3169      C3174   1.405       .  A
C3170      C3171   1.402       .  A
C3170      H3179   1.083       .  S
C3171      C3172   1.404       .  A
C3171      H3180   1.083       .  S
C3172      C3178   1.409       .  A
C3172      C3173   1.414       .  A
C3173      C3175   1.400       .  A
C3173      C3174   1.403       .  A
C3174      H3181   1.084       .  S
C3175      C3176   1.394       .  A
C3175      H3182   1.084       .  S
C3176      C3177   1.405       .  A
C3176      H3183   1.083       .  S
C3177      C3178   1.408       .  A
C3178      H3184   1.084       .  S
C3185      C3186   1.406       .  A
C3185      C3190   1.407       .  A
C3186      C3187   1.399       .  A
C3186      H3195   1.083       .  S
C3187      C3188   1.402       .  A
C3187      H3196   1.083       .  S
C3188      C3194   1.408       .  A
C3188      C3189   1.414       .  A
C3189      C3191   1.401       .  A
C3189      C3190   1.406       .  A
C3190      H3197   1.084       .  S
C3191      C3192   1.398       .  A
C3191      H3198   1.083       .  S
C3192      C3193   1.407       .  A
C3192      H3199   1.083       .  S
C3193      C3194   1.408       .  A
C3194      H3200   1.084       .  S
C3201      C3202   1.406       .  A
C3201      C3206   1.406       .  A
C3202      C3203   1.403       .  A
C3202      H3211   1.083       .  S
C3203      C3204   1.405       .  A
C3203      H3212   1.083       .  S
C3204      C3210   1.411       .  A
C3204      C3205   1.413       .  A
C3205      C3207   1.400       .  A
C3205      C3206   1.404       .  A
C3206      H3213   1.084       .  S
C3207      C3208   1.395       .  A
C3207      H3214   1.084       .  S
C3208      C3209   1.406       .  A
C3208      H3215   1.083       .  S
C3209      C3210   1.410       .  A
C3210      H3216   1.084       .  S
C3217      C3218   1.406       .  A
C3217      C3222   1.406       .  A
C3218      C3219   1.397       .  A
C3218      H3227   1.083       .  S
C3219      C3220   1.402       .  A
C3219      H3228   1.084       .  S
C3220      C3226   1.405       .  A
C3220      C3221   1.414       .  A
C3221      C3223   1.401       .  A
C3221      C3222   1.405       .  A
C3222      H3229   1.084       .  S
C3223      C3224   1.397       .  A
C3223      H3230   1.084       .  S
C3224      C3225   1.406       .  A
C3224      H3231   1.083       .  S
C3225      C3226   1.406       .  A
C3226      H3232   1.084       .  S
C3233      C3234   1.406       .  A
C3233      C3238   1.407       .  A
C3234      C3235   1.394       .  A
C3234      H3243   1.083       .  S
C3235      C3236   1.400       .  A
C3235      H3244   1.084       .  S
C3236      C3242   1.403       .  A
C3236      C3237   1.414       .  A
C3237      C3239   1.403       .  A
C3237      C3238   1.408       .  A
C3238      H3245   1.084       .  S
C3239      C3240   1.401       .  A
C3239      H3246   1.084       .  S
C3240      C3241   1.407       .  A
C3240      H3247   1.083       .  S
C3241      C3242   1.405       .  A
C3242      H3248   1.084       .  S
C3249      C3250   1.405       .  A
C3249      C3254   1.405       .  A
C3250      C3251   1.401       .  A
C3250      H3259   1.083       .  S
C3251      C3252   1.404       .  A
C3251      H3260   1.083       .  S
C3252      C3258   1.408       .  A
C3252      C3253   1.414       .  A
C3253      C3255   1.399       .  A
C3253      C3254   1.401       .  A
C3254      H3261   1.084       .  S
C3255      C3256   1.393       .  A
C3255      H3262   1.084       .  S
C3256      C3257   1.406       .  A
C3256      H3263   1.083       .  S
C3257      C3258   1.408       .  A
C3258      H3264   1.084       .  S
C3265      C3266   1.407       .  A
C3265      C3270   1.406       .  A
C3266      C3267   1.398       .  A
C3266      H3275   1.083       .  S
C3267      C3268   1.402   1_655  A
C3267      H3276   1.084       .  S
C3268      C3274   1.407       .  A
C3268      C3269   1.415   1_455  A
C3269      C3271   1.401   1_655  A
C3269      C3270   1.406       .  A
C3270      H3277   1.084       .  S
C3271      C3272   1.397       .  A
C3271      H3278   1.084   1_455  S
C3272      C3273   1.407       .  A
C3272      H3279   1.083       .  S
C3273      C3274   1.407       .  A
C3274      H3280   1.084       .  S
C3281      C3282   1.406       .  A
C3281      C3286   1.407       .  A
C3282      C3283   1.397       .  A
C3282      H3291   1.083       .  S
C3283      C3284   1.401       .  A
C3283      H3292   1.084       .  S
C3284      C3290   1.405       .  A
C3284      C3285   1.414       .  A
C3285      C3287   1.402       .  A
C3285      C3286   1.406       .  A
C3286      H3293   1.084       .  S
C3287      C3288   1.398       .  A
C3287      H3294   1.083       .  S
C3288      C3289   1.406       .  A
C3288      H3295   1.083       .  S
C3289      C3290   1.407       .  A
C3290      H3296   1.084       .  S
C3297      C3298   1.406       .  A
C3297      C3302   1.407       .  A
C3298      C3299   1.397       .  A
C3298      H3307   1.083       .  S
C3299      C3300   1.401       .  A
C3299      H3308   1.083       .  S
C3300      C3306   1.404       .  A
C3300      C3301   1.414       .  A
C3301      C3303   1.402       .  A
C3301      C3302   1.405       .  A
C3302      H3309   1.084       .  S
C3303      C3304   1.397       .  A
C3303      H3310   1.083       .  S
C3304      C3305   1.406       .  A
C3304      H3311   1.083       .  S
C3305      C3306   1.405       .  A
C3306      H3312   1.084       .  S
C3313      C3314   1.407       .  A
C3313      C3318   1.409       .  A
C3314      C3315   1.394       .  A
C3314      H3323   1.083       .  S
C3315      C3316   1.399       .  A
C3315      H3324   1.084       .  S
C3316      C3322   1.402       .  A
C3316      C3317   1.414       .  A
C3317      C3319   1.405       .  A
C3317      C3318   1.410       .  A
C3318      H3325   1.084       .  S
C3319      C3320   1.403       .  A
C3319      H3326   1.083       .  S
C3320      C3321   1.406       .  A
C3320      H3327   1.083       .  S
C3321      C3322   1.406       .  A
C3322      H3328   1.084       .  S
C3329      C3330   1.406       .  A
C3329      C3334   1.406       .  A
C3330      C3331   1.393       .  A
C3330      H3339   1.083       .  S
C3331      C3332   1.399       .  A
C3331      H3340   1.084       .  S
C3332      C3338   1.400       .  A
C3332      C3333   1.414       .  A
C3333      C3335   1.403       .  A
C3333      C3334   1.405       .  A
C3334      H3341   1.084       .  S
C3335      C3336   1.399       .  A
C3335      H3342   1.083       .  S
C3336      C3337   1.406       .  A
C3336      H3343   1.083       .  S
C3337      C3338   1.404       .  A
C3338      H3344   1.084       .  S
C3345      C3346   1.406       .  A
C3345      C3350   1.409       .  A
C3346      C3347   1.395       .  A
C3346      H3355   1.083       .  S
C3347      C3348   1.400       .  A
C3347      H3356   1.084       .  S
C3348      C3354   1.404       .  A
C3348      C3349   1.414       .  A
C3349      C3351   1.404       .  A
C3349      C3350   1.410       .  A
C3350      H3357   1.084       .  S
C3351      C3352   1.401       .  A
C3351      H3358   1.083       .  S
C3352      C3353   1.407       .  A
C3352      H3359   1.083       .  S
C3353      C3354   1.405       .  A
C3354      H3360   1.084       .  S
C3361      C3362   1.405       .  A
C3361      C3366   1.405       .  A
C3362      C3363   1.399       .  A
C3362      H3371   1.083       .  S
C3363      C3364   1.403       .  A
C3363      H3372   1.084       .  S
C3364      C3370   1.406       .  A
C3364      C3365   1.414       .  A
C3365      C3367   1.400       .  A
C3365      C3366   1.402       .  A
C3366      H3373   1.084       .  S
C3367      C3368   1.395       .  A
C3367      H3374   1.084       .  S
C3368      C3369   1.406       .  A
C3368      H3375   1.083       .  S
C3369      C3370   1.407       .  A
C3370      H3376   1.084       .  S
C3377      C3378   1.407       .  A
C3377      C3382   1.406       .  A
C3378      C3379   1.399       .  A
C3378      H3387   1.083       .  S
C3379      C3380   1.403       .  A
C3379      H3388   1.084       .  S
C3380      C3386   1.407       .  A
C3380      C3381   1.414       .  A
C3381      C3383   1.401       .  A
C3381      C3382   1.404       .  A
C3382      H3389   1.084       .  S
C3383      C3384   1.396       .  A
C3383      H3390   1.084       .  S
C3384      C3385   1.406       .  A
C3384      H3391   1.083       .  S
C3385      C3386   1.408       .  A
C3386      H3392   1.084       .  S
C3393      C3394   1.406       .  A
C3393      C3398   1.406       .  A
C3394      C3395   1.397       .  A
C3394      H3403   1.083       .  S
C3395      C3396   1.401       .  A
C3395      H3404   1.084       .  S
C3396      C3402   1.404       .  A
C3396      C3397   1.414       .  A
C3397      C3399   1.402       .  A
C3397      C3398   1.405       .  A
C3398      H3405   1.084       .  S
C3399      C3400   1.398       .  A
C3399      H3406   1.084       .  S
C3400      C3401   1.406       .  A
C3400      H3407   1.083       .  S
C3401      C3402   1.406       .  A
C3402      H3408   1.084       .  S
C3409      C3410   1.406       .  A
C3409      C3414   1.407       .  A
C3410      C3411   1.398       .  A
C3410      H3419   1.083       .  S
C3411      C3412   1.403       .  A
C3411      H3420   1.084       .  S
C3412      C3418   1.405       .  A
C3412      C3413   1.413       .  A
C3413      C3415   1.403       .  A
C3413      C3414   1.406       .  A
C3414      H3421   1.084       .  S
C3415      C3416   1.399       .  A
C3415      H3422   1.084       .  S
C3416      C3417   1.405       .  A
C3416      H3423   1.083       .  S
C3417      C3418   1.408       .  A
C3418      H3424   1.084       .  S
C3425      C3426   1.406       .  A
C3425      C3430   1.407       .  A
C3426      C3427   1.399       .  A
C3426      H3435   1.083       .  S
C3427      C3428   1.402   1_545  A
C3427      H3436   1.084   1_545  S
C3428      C3434   1.406       .  A
C3428      C3429   1.414   1_565  A
C3429      C3431   1.401   1_545  A
C3429      C3430   1.405       .  A
C3430      H3437   1.084       .  S
C3431      C3432   1.397       .  A
C3431      H3438   1.084       .  S
C3432      C3433   1.406       .  A
C3432      H3439   1.083       .  S
C3433      C3434   1.407       .  A
C3434      H3440   1.084       .  S
C3441      C3442   1.405       .  A
C3441      C3446   1.409       .  A
C3442      C3443   1.390       .  A
C3442      H3451   1.083       .  S
C3443      C3444   1.398       .  A
C3443      H3452   1.084       .  S
C3444      C3450   1.397       .  A
C3444      C3445   1.413       .  A
C3445      C3447   1.406       .  A
C3445      C3446   1.410       .  A
C3446      H3453   1.084       .  S
C3447      C3448   1.404       .  A
C3447      H3454   1.083       .  S
C3448      C3449   1.406       .  A
C3448      H3455   1.083       .  S
C3449      C3450   1.403       .  A
C3450      H3456   1.084       .  S
C3457      C3458   1.407       .  A
C3457      C3462   1.407       .  A
C3458      C3459   1.398       .  A
C3458      H3467   1.083       .  S
C3459      C3460   1.402   1_556  A
C3459      H3468   1.084       .  S
C3460      C3466   1.408       .  A
C3460      C3461   1.414   1_554  A
C3461      C3463   1.402   1_556  A
C3461      C3462   1.408       .  A
C3462      H3469   1.084       .  S
C3463      C3464   1.399       .  A
C3463      H3470   1.084       .  S
C3464      C3465   1.407       .  A
C3464      H3471   1.083       .  S
C3465      C3466   1.408       .  A
C3466      H3472   1.084       .  S
C3473      C3474   1.406       .  A
C3473      C3478   1.409       .  A
C3474      C3475   1.397       .  A
C3474      H3483   1.083       .  S
C3475      C3476   1.401       .  A
C3475      H3484   1.083       .  S
C3476      C3482   1.407       .  A
C3476      C3477   1.414       .  A
C3477      C3479   1.403       .  A
C3477      C3478   1.409       .  A
C3478      H3485   1.084       .  S
C3479      C3480   1.401       .  A
C3479      H3486   1.083       .  S
C3480      C3481   1.407       .  A
C3480      H3487   1.083       .  S
C3481      C3482   1.407       .  A
C3482      H3488   1.084       .  S
C3489      C3490   1.406       .  A
C3489      C3494   1.407       .  A
C3490      C3491   1.399       .  A
C3490      H3499   1.083       .  S
C3491      C3492   1.403       .  A
C3491      H3500   1.084       .  S
C3492      C3498   1.406       .  A
C3492      C3493   1.413       .  A
C3493      C3495   1.402       .  A
C3493      C3494   1.404       .  A
C3494      H3501   1.084       .  S
C3495      C3496   1.397       .  A
C3495      H3502   1.084       .  S
C3496      C3497   1.406       .  A
C3496      H3503   1.083       .  S
C3497      C3498   1.407       .  A
C3498      H3504   1.084       .  S
C3505      C3506   1.406       .  A
C3505      C3510   1.409       .  A
C3506      C3507   1.389       .  A
C3506      H3515   1.083       .  S
C3507      C3508   1.397       .  A
C3507      H3516   1.084       .  S
C3508      C3514   1.396       .  A
C3508      C3509   1.414       .  A
C3509      C3511   1.406       .  A
C3509      C3510   1.410       .  A
C3510      H3517   1.084       .  S
C3511      C3512   1.404       .  A
C3511      H3518   1.083       .  S
C3512      C3513   1.406       .  A
C3512      H3519   1.083       .  S
C3513      C3514   1.402       .  A
C3514      H3520   1.084       .  S
C3521      C3522   1.407       .  A
C3521      C3526   1.406       .  A
C3522      C3523   1.398       .  A
C3522      H3531   1.083       .  S
C3523      C3524   1.402       .  A
C3523      H3532   1.084       .  S
C3524      C3530   1.405       .  A
C3524      C3525   1.414       .  A
C3525      C3527   1.402       .  A
C3525      C3526   1.405       .  A
C3526      H3533   1.084       .  S
C3527      C3528   1.397       .  A
C3527      H3534   1.083       .  S
C3528      C3529   1.406       .  A
C3528      H3535   1.083       .  S
C3529      C3530   1.407       .  A
C3530      H3536   1.084       .  S
C3537      C3538   1.405       .  A
C3537      C3542   1.407       .  A
C3538      C3539   1.394       .  A
C3538      H3547   1.083       .  S
C3539      C3540   1.400       .  A
C3539      H3548   1.084       .  S
C3540      C3546   1.400       .  A
C3540      C3541   1.413       .  A
C3541      C3543   1.404       .  A
C3541      C3542   1.405       .  A
C3542      H3549   1.084       .  S
C3543      C3544   1.400       .  A
C3543      H3550   1.084       .  S
C3544      C3545   1.405       .  A
C3544      H3551   1.083       .  S
C3545      C3546   1.404       .  A
C3546      H3552   1.084       .  S
C3553      C3554   1.406       .  A
C3553      C3558   1.406       .  A
C3554      C3555   1.397       .  A
C3554      H3563   1.083       .  S
C3555      C3556   1.402       .  A
C3555      H3564   1.083       .  S
C3556      C3562   1.404       .  A
C3556      C3557   1.414       .  A
C3557      C3559   1.402       .  A
C3557      C3558   1.404       .  A
C3558      H3565   1.084       .  S
C3559      C3560   1.397       .  A
C3559      H3566   1.083       .  S
C3560      C3561   1.405       .  A
C3560      H3567   1.083       .  S
C3561      C3562   1.407       .  A
C3562      H3568   1.084       .  S
C3569      C3570   1.407       .  A
C3569      C3574   1.405       .  A
C3570      C3571   1.403       .  A
C3570      H3579   1.083       .  S
C3571      C3572   1.405   1_556  A
C3571      H3580   1.083   1_556  S
C3572      C3578   1.411       .  A
C3572      C3573   1.414       .  A
C3573      C3575   1.399       .  A
C3573      C3574   1.402   1_554  A
C3574      H3581   1.084       .  S
C3575      C3576   1.393       .  A
C3575      H3582   1.084       .  S
C3576      C3577   1.406       .  A
C3576      H3583   1.083       .  S
C3577      C3578   1.410       .  A
C3578      H3584   1.084       .  S
C3585      C3586   1.406       .  A
C3585      C3590   1.406       .  A
C3586      C3587   1.397       .  A
C3586      H3595   1.083       .  S
C3587      C3588   1.401       .  A
C3587      H3596   1.084       .  S
C3588      C3594   1.405       .  A
C3588      C3589   1.414       .  A
C3589      C3591   1.401       .  A
C3589      C3590   1.405       .  A
C3590      H3597   1.084       .  S
C3591      C3592   1.397       .  A
C3591      H3598   1.084       .  S
C3592      C3593   1.407       .  A
C3592      H3599   1.083       .  S
C3593      C3594   1.406       .  A
C3594      H3600   1.084       .  S
C3601      C3602   1.407       .  A
C3601      C3606   1.407       .  A
C3602      C3603   1.403       .  A
C3602      H3611   1.083       .  S
C3603      C3604   1.405       .  A
C3603      H3612   1.083       .  S
C3604      C3610   1.412       .  A
C3604      C3605   1.414       .  A
C3605      C3607   1.400       .  A
C3605      C3606   1.405       .  A
C3606      H3613   1.084       .  S
C3607      C3608   1.396       .  A
C3607      H3614   1.084       .  S
C3608      C3609   1.407       .  A
C3608      H3615   1.083       .  S
C3609      C3610   1.410       .  A
C3610      H3616   1.084       .  S
C3617      C3618   1.406       .  A
C3617      C3622   1.407       .  A
C3618      C3619   1.400       .  A
C3618      H3627   1.083       .  S
C3619      C3620   1.403       .  A
C3619      H3628   1.083       .  S
C3620      C3626   1.408       .  A
C3620      C3621   1.414       .  A
C3621      C3623   1.402       .  A
C3621      C3622   1.406       .  A
C3622      H3629   1.084       .  S
C3623      C3624   1.398       .  A
C3623      H3630   1.084       .  S
C3624      C3625   1.406       .  A
C3624      H3631   1.083       .  S
C3625      C3626   1.409       .  A
C3626      H3632   1.084       .  S
C3633      C3634   1.406       .  A
C3633      C3638   1.408       .  A
C3634      C3635   1.397       .  A
C3634      H3643   1.083       .  S
C3635      C3636   1.401       .  A
C3635      H3644   1.083       .  S
C3636      C3642   1.406       .  A
C3636      C3637   1.414       .  A
C3637      C3639   1.403       .  A
C3637      C3638   1.408       .  A
C3638      H3645   1.084       .  S
C3639      C3640   1.399       .  A
C3639      H3646   1.083       .  S
C3640      C3641   1.407       .  A
C3640      H3647   1.083       .  S
C3641      C3642   1.407       .  A
C3642      H3648   1.084       .  S
C3649      C3650   1.406       .  A
C3649      C3654   1.405       .  A
C3650      C3651   1.400       .  A
C3650      H3659   1.083       .  S
C3651      C3652   1.403       .  A
C3651      H3660   1.083       .  S
C3652      C3658   1.407       .  A
C3652      C3653   1.414       .  A
C3653      C3655   1.399       .  A
C3653      C3654   1.402       .  A
C3654      H3661   1.084       .  S
C3655      C3656   1.394       .  A
C3655      H3662   1.084       .  S
C3656      C3657   1.406       .  A
C3656      H3663   1.083       .  S
C3657      C3658   1.407       .  A
C3658      H3664   1.084       .  S
C3665      C3666   1.406       .  A
C3665      C3670   1.410       .  A
C3666      C3667   1.398       .  A
C3666      H3675   1.083       .  S
C3667      C3668   1.402       .  A
C3667      H3676   1.084       .  S
C3668      C3674   1.406       .  A
C3668      C3669   1.414       .  A
C3669      C3671   1.404       .  A
C3669      C3670   1.409       .  A
C3670      H3677   1.084       .  S
C3671      C3672   1.401       .  A
C3671      H3678   1.084       .  S
C3672      C3673   1.407       .  A
C3672      H3679   1.083       .  S
C3673      C3674   1.406       .  A
C3674      H3680   1.084       .  S
C3681      C3682   1.407       .  A
C3681      C3686   1.408       .  A
C3682      C3683   1.401       .  A
C3682      H3691   1.083       .  S
C3683      C3684   1.403       .  A
C3683      H3692   1.083       .  S
C3684      C3690   1.411       .  A
C3684      C3685   1.414       .  A
C3685      C3687   1.402       .  A
C3685      C3686   1.409       .  A
C3686      H3693   1.084       .  S
C3687      C3688   1.399       .  A
C3687      H3694   1.083       .  S
C3688      C3689   1.407       .  A
C3688      H3695   1.083       .  S
C3689      C3690   1.409       .  A
C3690      H3696   1.084       .  S
C3697      C3698   1.405       .  A
C3697      C3702   1.408       .  A
C3698      C3699   1.393       .  A
C3698      H3707   1.083       .  S
C3699      C3700   1.399       .  A
C3699      H3708   1.084       .  S
C3700      C3706   1.400       .  A
C3700      C3701   1.414       .  A
C3701      C3703   1.404       .  A
C3701      C3702   1.408       .  A
C3702      H3709   1.084       .  S
C3703      C3704   1.401       .  A
C3703      H3710   1.083       .  S
C3704      C3705   1.406       .  A
C3704      H3711   1.083       .  S
C3705      C3706   1.404       .  A
C3706      H3712   1.084       .  S
C3713      C3714   1.407       .  A
C3713      C3718   1.409       .  A
C3714      C3715   1.394       .  A
C3714      H3723   1.083       .  S
C3715      C3716   1.399       .  A
C3715      H3724   1.084       .  S
C3716      C3722   1.402       .  A
C3716      C3717   1.414       .  A
C3717      C3719   1.405       .  A
C3717      C3718   1.410       .  A
C3718      H3725   1.084       .  S
C3719      C3720   1.402       .  A
C3719      H3726   1.083       .  S
C3720      C3721   1.406       .  A
C3720      H3727   1.083       .  S
C3721      C3722   1.405       .  A
C3722      H3728   1.084       .  S
C3729      C3730   1.406       .  A
C3729      C3734   1.406       .  A
C3730      C3731   1.396       .  A
C3730      H3739   1.083       .  S
C3731      C3732   1.401       .  A
C3731      H3740   1.084       .  S
C3732      C3738   1.403       .  A
C3732      C3733   1.414       .  A
C3733      C3735   1.402       .  A
C3733      C3734   1.405       .  A
C3734      H3741   1.084       .  S
C3735      C3736   1.398       .  A
C3735      H3742   1.084       .  S
C3736      C3737   1.406       .  A
C3736      H3743   1.083       .  S
C3737      C3738   1.405       .  A
C3738      H3744   1.084       .  S
C3745      C3746   1.406       .  A
C3745      C3750   1.408       .  A
C3746      C3747   1.396       .  A
C3746      H3755   1.083       .  S
C3747      C3748   1.401       .  A
C3747      H3756   1.084       .  S
C3748      C3754   1.403       .  A
C3748      C3749   1.413       .  A
C3749      C3751   1.404       .  A
C3749      C3750   1.408       .  A
C3750      H3757   1.084       .  S
C3751      C3752   1.401       .  A
C3751      H3758   1.084       .  S
C3752      C3753   1.406       .  A
C3752      H3759   1.083       .  S
C3753      C3754   1.406       .  A
C3754      H3760   1.084       .  S
C3761      C3762   1.406       .  A
C3761      C3766   1.408       .  A
C3762      C3763   1.395       .  A
C3762      H3771   1.083       .  S
C3763      C3764   1.400       .  A
C3763      H3772   1.084       .  S
C3764      C3770   1.404       .  A
C3764      C3765   1.414       .  A
C3765      C3767   1.403       .  A
C3765      C3766   1.409       .  A
C3766      H3773   1.084       .  S
C3767      C3768   1.401       .  A
C3767      H3774   1.084       .  S
C3768      C3769   1.407       .  A
C3768      H3775   1.083       .  S
C3769      C3770   1.406       .  A
C3770      H3776   1.084       .  S
C3777      C3778   1.406       .  A
C3777      C3782   1.406       .  A
C3778      C3779   1.395       .  A
C3778      H3787   1.083       .  S
C3779      C3780   1.400       .  A
C3779      H3788   1.084       .  S
C3780      C3786   1.401       .  A
C3780      C3781   1.414       .  A
C3781      C3783   1.402       .  A
C3781      C3782   1.405       .  A
C3782      H3789   1.084       .  S
C3783      C3784   1.398       .  A
C3783      H3790   1.084       .  S
C3784      C3785   1.406       .  A
C3784      H3791   1.083       .  S
C3785      C3786   1.404       .  A
C3786      H3792   1.084       .  S
C3793      C3794   1.405       .  A
C3793      C3798   1.407       .  A
C3794      C3795   1.399       .  A
C3794      H3803   1.083       .  S
C3795      C3796   1.403   1_545  A
C3795      H3804   1.084       .  S
C3796      C3802   1.406       .  A
C3796      C3797   1.413   1_565  A
C3797      C3799   1.402   1_545  A
C3797      C3798   1.405       .  A
C3798      H3805   1.084       .  S
C3799      C3800   1.398       .  A
C3799      H3806   1.084   1_565  S
C3800      C3801   1.405       .  A
C3800      H3807   1.083       .  S
C3801      C3802   1.408       .  A
C3802      H3808   1.084       .  S
C3809      C3810   1.406       .  A
C3809      C3814   1.405       .  A
C3810      C3811   1.396       .  A
C3810      H3819   1.083       .  S
C3811      C3812   1.401       .  A
C3811      H3820   1.084       .  S
C3812      C3818   1.403       .  A
C3812      C3813   1.414       .  A
C3813      C3815   1.401       .  A
C3813      C3814   1.403       .  A
C3814      H3821   1.084       .  S
C3815      C3816   1.397       .  A
C3815      H3822   1.084       .  S
C3816      C3817   1.405       .  A
C3816      H3823   1.083       .  S
C3817      C3818   1.406       .  A
C3818      H3824   1.084       .  S
C3825      C3826   1.406       .  A
C3825      C3830   1.409       .  A
C3826      C3827   1.394       .  A
C3826      H3835   1.083       .  S
C3827      C3828   1.400       .  A
C3827      H3836   1.084       .  S
C3828      C3834   1.401       .  A
C3828      C3829   1.413       .  A
C3829      C3831   1.405       .  A
C3829      C3830   1.408       .  A
C3830      H3837   1.084       .  S
C3831      C3832   1.402       .  A
C3831      H3838   1.084       .  S
C3832      C3833   1.406       .  A
C3832      H3839   1.083       .  S
C3833      C3834   1.406       .  A
C3834      H3840   1.084       .  S
C3841      C3842   1.406       .  A
C3841      C3846   1.409       .  A
C3842      C3843   1.397       .  A
C3842      H3851   1.083       .  S
C3843      C3844   1.401   1_545  A
C3843      H3852   1.083   1_545  S
C3844      C3850   1.407       .  A
C3844      C3845   1.414   1_565  A
C3845      C3847   1.403   1_545  A
C3845      C3846   1.411       .  A
C3846      H3853   1.084       .  S
C3847      C3848   1.401       .  A
C3847      H3854   1.083       .  S
C3848      C3849   1.407       .  A
C3848      H3855   1.083       .  S
C3849      C3850   1.407       .  A
C3850      H3856   1.084       .  S
C3857      C3858   1.407       .  A
C3857      C3862   1.408       .  A
C3858      C3859   1.400       .  A
C3858      H3867   1.083       .  S
C3859      C3860   1.403       .  A
C3859      H3868   1.083       .  S
C3860      C3866   1.408       .  A
C3860      C3861   1.414       .  A
C3861      C3863   1.402       .  A
C3861      C3862   1.407       .  A
C3862      H3869   1.084       .  S
C3863      C3864   1.399       .  A
C3863      H3870   1.083       .  S
C3864      C3865   1.406       .  A
C3864      H3871   1.083       .  S
C3865      C3866   1.409       .  A
C3866      H3872   1.084       .  S
C3873      C3874   1.406       .  A
C3873      C3878   1.405       .  A
C3874      C3875   1.402       .  A
C3874      H3883   1.083       .  S
C3875      C3876   1.405       .  A
C3875      H3884   1.084       .  S
C3876      C3882   1.409       .  A
C3876      C3877   1.414       .  A
C3877      C3879   1.399       .  A
C3877      C3878   1.401       .  A
C3878      H3885   1.084       .  S
C3879      C3880   1.394       .  A
C3879      H3886   1.084       .  S
C3880      C3881   1.406       .  A
C3880      H3887   1.083       .  S
C3881      C3882   1.408       .  A
C3882      H3888   1.084       .  S
C3889      C3890   1.406       .  A
C3889      C3894   1.408       .  A
C3890      C3891   1.392       .  A
C3890      H3899   1.083       .  S
C3891      C3892   1.399       .  A
C3891      H3900   1.084       .  S
C3892      C3898   1.399       .  A
C3892      C3893   1.414       .  A
C3893      C3895   1.405       .  A
C3893      C3894   1.408       .  A
C3894      H3901   1.084       .  S
C3895      C3896   1.402       .  A
C3895      H3902   1.083       .  S
C3896      C3897   1.406       .  A
C3896      H3903   1.083       .  S
C3897      C3898   1.404       .  A
C3898      H3904   1.084       .  S
C3905      C3906   1.406       .  A
C3905      C3910   1.406       .  A
C3906      C3907   1.400       .  A
C3906      H3915   1.083       .  S
C3907      C3908   1.404   1_565  A
C3907      H3916   1.083       .  S
C3908      C3914   1.408       .  A
C3908      C3909   1.414   1_545  A
C3909      C3911   1.400   1_565  A
C3909      C3910   1.403       .  A
C3910      H3917   1.084       .  S
C3911      C3912   1.395       .  A
C3911      H3918   1.084   1_545  S
C3912      C3913   1.406       .  A
C3912      H3919   1.083       .  S
C3913      C3914   1.408       .  A
C3914      H3920   1.084       .  S
C3921      C3922   1.406       .  A
C3921      C3926   1.406       .  A
C3922      C3923   1.397       .  A
C3922      H3931   1.083       .  S
C3923      C3924   1.401       .  A
C3923      H3932   1.084       .  S
C3924      C3930   1.405       .  A
C3924      C3925   1.415       .  A
C3925      C3927   1.402       .  A
C3925      C3926   1.406       .  A
C3926      H3933   1.084       .  S
C3927      C3928   1.398       .  A
C3927      H3934   1.084       .  S
C3928      C3929   1.407       .  A
C3928      H3935   1.083       .  S
C3929      C3930   1.406       .  A
C3930      H3936   1.084       .  S
C3937      C3938   1.405       .  A
C3937      C3942   1.408       .  A
C3938      C3939   1.394       .  A
C3938      H3947   1.083       .  S
C3939      C3940   1.400       .  A
C3939      H3948   1.084       .  S
C3940      C3946   1.402       .  A
C3940      C3941   1.414       .  A
C3941      C3943   1.404       .  A
C3941      C3942   1.407       .  A
C3942      H3949   1.084       .  S
C3943      C3944   1.401       .  A
C3943      H3950   1.083       .  S
C3944      C3945   1.406       .  A
C3944      H3951   1.083       .  S
C3945      C3946   1.405       .  A
C3946      H3952   1.084       .  S
C3953      C3954   1.406       .  A
C3953      C3958   1.407       .  A
C3954      C3955   1.394       .  A
C3954      H3963   1.083       .  S
C3955      C3956   1.399       .  A
C3955      H3964   1.084       .  S
C3956      C3962   1.402       .  A
C3956      C3957   1.414       .  A
C3957      C3959   1.403       .  A
C3957      C3958   1.408       .  A
C3958      H3965   1.084       .  S
C3959      C3960   1.400       .  A
C3959      H3966   1.084       .  S
C3960      C3961   1.406       .  A
C3960      H3967   1.083       .  S
C3961      C3962   1.404       .  A
C3962      H3968   1.084       .  S
C3969      C3970   1.406       .  A
C3969      C3974   1.405       .  A
C3970      C3971   1.397       .  A
C3970      H3979   1.083       .  S
C3971      C3972   1.401   1_655  A
C3971      H3980   1.084   1_655  S
C3972      C3978   1.405       .  A
C3972      C3973   1.415       .  A
C3973      C3975   1.401       .  A
C3973      C3974   1.405   1_455  A
C3974      H3981   1.084       .  S
C3975      C3976   1.396       .  A
C3975      H3982   1.084       .  S
C3976      C3977   1.407       .  A
C3976      H3983   1.083       .  S
C3977      C3978   1.406       .  A
C3978      H3984   1.084       .  S
C3985      C3986   1.406       .  A
C3985      C3990   1.407       .  A
C3986      C3987   1.399       .  A
C3986      H3995   1.083       .  S
C3987      C3988   1.402       .  A
C3987      H3996   1.084       .  S
C3988      C3994   1.406       .  A
C3988      C3989   1.414       .  A
C3989      C3991   1.402       .  A
C3989      C3990   1.405       .  A
C3990      H3997   1.084       .  S
C3991      C3992   1.397       .  A
C3991      H3998   1.084       .  S
C3992      C3993   1.406       .  A
C3992      H3999   1.083       .  S
C3993      C3994   1.407       .  A
C3994      H4000   1.084       .  S
C4001      C4002   1.406       .  A
C4001      C4006   1.405       .  A
C4002      C4003   1.400       .  A
C4002      H4011   1.083       .  S
C4003      C4004   1.403       .  A
C4003      H4012   1.084       .  S
C4004      C4010   1.404       .  A
C4004      C4005   1.413       .  A
C4005      C4007   1.401       .  A
C4005      C4006   1.400       .  A
C4006      H4013   1.084       .  S
C4007      C4008   1.395       .  A
C4007      H4014   1.084       .  S
C4008      C4009   1.405       .  A
C4008      H4015   1.083       .  S
C4009      C4010   1.407       .  A
C4010      H4016   1.084       .  S
C4017      C4018   1.406       .  A
C4017      C4022   1.408       .  A
C4018      C4019   1.398       .  A
C4018      H4027   1.083       .  S
C4019      C4020   1.402       .  A
C4019      H4028   1.084       .  S
C4020      C4026   1.405       .  A
C4020      C4021   1.414       .  A
C4021      C4023   1.403       .  A
C4021      C4022   1.407       .  A
C4022      H4029   1.084       .  S
C4023      C4024   1.399       .  A
C4023      H4030   1.084       .  S
C4024      C4025   1.406       .  A
C4024      H4031   1.083       .  S
C4025      C4026   1.407       .  A
C4026      H4032   1.084       .  S
C4033      C4034   1.407       .  A
C4033      C4038   1.407       .  A
C4034      C4035   1.395       .  A
C4034      H4043   1.083       .  S
C4035      C4036   1.400       .  A
C4035      H4044   1.084       .  S
C4036      C4042   1.403       .  A
C4036      C4037   1.414       .  A
C4037      C4039   1.403       .  A
C4037      C4038   1.408       .  A
C4038      H4045   1.084       .  S
C4039      C4040   1.400       .  A
C4039      H4046   1.083       .  S
C4040      C4041   1.406       .  A
C4040      H4047   1.083       .  S
C4041      C4042   1.405       .  A
C4042      H4048   1.084       .  S
C4049      C4050   1.407       .  A
C4049      C4054   1.407       .  A
C4050      C4051   1.398       .  A
C4050      H4059   1.083       .  S
C4051      C4052   1.401       .  A
C4051      H4060   1.083       .  S
C4052      C4058   1.407   1_554  A
C4052      C4053   1.414       .  A
C4053      C4055   1.402       .  A
C4053      C4054   1.408       .  A
C4054      H4061   1.084       .  S
C4055      C4056   1.399   1_554  A
C4055      H4062   1.083       .  S
C4056      C4057   1.407       .  A
C4056      H4063   1.083       .  S
C4057      C4058   1.407       .  A
C4058      H4064   1.084       .  S
C4065      C4066   1.406       .  A
C4065      C4070   1.407       .  A
C4066      C4067   1.398       .  A
C4066      H4075   1.083       .  S
C4067      C4068   1.402       .  A
C4067      H4076   1.084       .  S
C4068      C4074   1.405       .  A
C4068      C4069   1.414       .  A
C4069      C4071   1.402       .  A
C4069      C4070   1.406       .  A
C4070      H4077   1.084       .  S
C4071      C4072   1.398       .  A
C4071      H4078   1.084       .  S
C4072      C4073   1.406       .  A
C4072      H4079   1.083       .  S
C4073      C4074   1.407       .  A
C4074      H4080   1.084       .  S
C4081      C4082   1.406       .  A
C4081      C4086   1.404       .  A
C4082      C4083   1.401       .  A
C4082      H4091   1.083       .  S
C4083      C4084   1.403       .  A
C4083      H4092   1.084       .  S
C4084      C4090   1.408       .  A
C4084      C4085   1.414       .  A
C4085      C4087   1.399       .  A
C4085      C4086   1.402       .  A
C4086      H4093   1.084       .  S
C4087      C4088   1.394       .  A
C4087      H4094   1.084       .  S
C4088      C4089   1.406       .  A
C4088      H4095   1.083       .  S
C4089      C4090   1.408       .  A
C4090      H4096   1.084       .  S
C4097      C4098   1.406       .  A
C4097      C4102   1.407       .  A
C4098      C4099   1.397       .  A
C4098      H4107   1.083       .  S
C4099      C4100   1.401       .  A
C4099      H4108   1.084       .  S
C4100      C4106   1.405       .  A
C4100      C4101   1.414       .  A
C4101      C4103   1.402       .  A
C4101      C4102   1.406       .  A
C4102      H4109   1.084       .  S
C4103      C4104   1.398       .  A
C4103      H4110   1.084       .  S
C4104      C4105   1.406       .  A
C4104      H4111   1.083       .  S
C4105      C4106   1.406       .  A
C4106      H4112   1.084       .  S
C4113      C4114   1.406       .  A
C4113      C4118   1.405       .  A
C4114      C4115   1.400       .  A
C4114      H4123   1.083       .  S
C4115      C4116   1.403       .  A
C4115      H4124   1.083       .  S
C4116      C4122   1.408       .  A
C4116      C4117   1.415       .  A
C4117      C4119   1.400       .  A
C4117      C4118   1.402       .  A
C4118      H4125   1.084       .  S
C4119      C4120   1.394       .  A
C4119      H4126   1.084       .  S
C4120      C4121   1.406       .  A
C4120      H4127   1.083       .  S
C4121      C4122   1.407       .  A
C4122      H4128   1.084       .  S
C4129      C4130   1.406       .  A
C4129      C4134   1.404       .  A
C4130      C4131   1.399       .  A
C4130      H4139   1.083       .  S
C4131      C4132   1.403       .  A
C4131      H4140   1.084       .  S
C4132      C4138   1.406       .  A
C4132      C4133   1.414       .  A
C4133      C4135   1.399       .  A
C4133      C4134   1.401       .  A
C4134      H4141   1.084       .  S
C4135      C4136   1.393       .  A
C4135      H4142   1.084       .  S
C4136      C4137   1.406       .  A
C4136      H4143   1.083       .  S
C4137      C4138   1.407       .  A
C4138      H4144   1.084       .  S
C4145      C4146   1.406       .  A
C4145      C4150   1.410       .  A
C4146      C4147   1.396       .  A
C4146      H4155   1.083       .  S
C4147      C4148   1.400   1_556  A
C4147      H4156   1.083   1_556  S
C4148      C4154   1.406       .  A
C4148      C4149   1.414       .  A
C4149      C4151   1.404       .  A
C4149      C4150   1.412   1_554  A
C4150      H4157   1.084       .  S
C4151      C4152   1.402       .  A
C4151      H4158   1.083       .  S
C4152      C4153   1.407       .  A
C4152      H4159   1.083       .  S
C4153      C4154   1.406       .  A
C4154      H4160   1.084       .  S
C4161      C4162   1.406       .  A
C4161      C4166   1.408       .  A
C4162      C4163   1.397       .  A
C4162      H4171   1.083       .  S
C4163      C4164   1.401       .  A
C4163      H4172   1.084       .  S
C4164      C4170   1.405       .  A
C4164      C4165   1.413       .  A
C4165      C4167   1.403       .  A
C4165      C4166   1.408       .  A
C4166      H4173   1.084       .  S
C4167      C4168   1.401       .  A
C4167      H4174   1.084       .  S
C4168      C4169   1.406       .  A
C4168      H4175   1.083       .  S
C4169      C4170   1.407       .  A
C4170      H4176   1.084       .  S
C4177      C4178   1.406       .  A
C4177      C4182   1.408       .  A
C4178      C4179   1.398       .  A
C4178      H4187   1.083       .  S
C4179      C4180   1.402       .  A
C4179      H4188   1.084       .  S
C4180      C4186   1.408       .  A
C4180      C4181   1.414       .  A
C4181      C4183   1.402       .  A
C4181      C4182   1.407       .  A
C4182      H4189   1.084       .  S
C4183      C4184   1.398       .  A
C4183      H4190   1.084       .  S
C4184      C4185   1.407       .  A
C4184      H4191   1.083       .  S
C4185      C4186   1.407       .  A
C4186      H4192   1.084       .  S
C4193      C4194   1.405       .  A
C4193      C4198   1.406       .  A
C4194      C4195   1.401       .  A
C4194      H4203   1.083       .  S
C4195      C4196   1.404       .  A
C4195      H4204   1.083       .  S
C4196      C4202   1.408       .  A
C4196      C4197   1.414       .  A
C4197      C4199   1.400       .  A
C4197      C4198   1.403       .  A
C4198      H4205   1.084       .  S
C4199      C4200   1.395       .  A
C4199      H4206   1.084       .  S
C4200      C4201   1.406       .  A
C4200      H4207   1.083       .  S
C4201      C4202   1.408       .  A
C4202      H4208   1.084       .  S
C4209      C4210   1.406       .  A
C4209      C4214   1.404       .  A
C4210      C4211   1.396       .  A
C4210      H4219   1.083       .  S
C4211      C4212   1.401       .  A
C4211      H4220   1.084       .  S
C4212      C4218   1.403       .  A
C4212      C4213   1.414       .  A
C4213      C4215   1.401       .  A
C4213      C4214   1.403       .  A
C4214      H4221   1.084       .  S
C4215      C4216   1.397       .  A
C4215      H4222   1.084       .  S
C4216      C4217   1.405       .  A
C4216      H4223   1.083       .  S
C4217      C4218   1.406       .  A
C4218      H4224   1.084       .  S
C4225      C4226   1.406       .  A
C4225      C4230   1.407       .  A
C4226      C4227   1.396       .  A
C4226      H4235   1.083       .  S
C4227      C4228   1.401   1_655  A
C4227      H4236   1.084   1_655  S
C4228      C4234   1.404       .  A
C4228      C4229   1.414   1_455  A
C4229      C4231   1.402   1_655  A
C4229      C4230   1.406       .  A
C4230      H4237   1.084       .  S
C4231      C4232   1.398       .  A
C4231      H4238   1.083       .  S
C4232      C4233   1.406       .  A
C4232      H4239   1.083       .  S
C4233      C4234   1.406       .  A
C4234      H4240   1.084       .  S
C4241      C4242   1.406       .  A
C4241      C4246   1.407       .  A
C4242      C4243   1.396       .  A
C4242      H4251   1.083       .  S
C4243      C4244   1.401       .  A
C4243      H4252   1.084       .  S
C4244      C4250   1.406       .  A
C4244      C4245   1.414       .  A
C4245      C4247   1.402       .  A
C4245      C4246   1.408       .  A
C4246      H4253   1.084       .  S
C4247      C4248   1.400       .  A
C4247      H4254   1.084       .  S
C4248      C4249   1.407       .  A
C4248      H4255   1.083       .  S
C4249      C4250   1.406       .  A
C4250      H4256   1.084       .  S
C4257      C4258   1.406       .  A
C4257      C4262   1.408       .  A
C4258      C4259   1.396       .  A
C4258      H4267   1.083       .  S
C4259      C4260   1.401       .  A
C4259      H4268   1.083       .  S
C4260      C4266   1.403       .  A
C4260      C4261   1.414       .  A
C4261      C4263   1.403       .  A
C4261      C4262   1.407       .  A
C4262      H4269   1.084       .  S
C4263      C4264   1.400       .  A
C4263      H4270   1.083       .  S
C4264      C4265   1.405       .  A
C4264      H4271   1.083       .  S
C4265      C4266   1.406       .  A
C4266      H4272   1.084       .  S
C4273      C4274   1.406       .  A
C4273      C4278   1.408       .  A
C4274      C4275   1.396       .  A
C4274      H4283   1.083       .  S
C4275      C4276   1.401       .  A
C4275      H4284   1.083       .  S
C4276      C4282   1.404       .  A
C4276      C4277   1.414       .  A
C4277      C4279   1.403       .  A
C4277      C4278   1.407       .  A
C4278      H4285   1.084       .  S
C4279      C4280   1.399       .  A
C4279      H4286   1.084       .  S
C4280      C4281   1.406       .  A
C4280      H4287   1.083       .  S
C4281      C4282   1.405       .  A
C4282      H4288   1.084       .  S
C4289      C4290   1.406       .  A
C4289      C4294   1.407       .  A
C4290      C4291   1.397       .  A
C4290      H4299   1.083       .  S
C4291      C4292   1.402       .  A
C4291      H4300   1.084       .  S
C4292      C4298   1.405       .  A
C4292      C4293   1.414       .  A
C4293      C4295   1.402       .  A
C4293      C4294   1.405       .  A
C4294      H4301   1.084       .  S
C4295      C4296   1.398       .  A
C4295      H4302   1.084       .  S
C4296      C4297   1.406       .  A
C4296      H4303   1.083       .  S
C4297      C4298   1.406       .  A
C4298      H4304   1.084       .  S
C4305      C4306   1.406       .  A
C4305      C4310   1.405       .  A
C4306      C4307   1.400       .  A
C4306      H4315   1.083       .  S
C4307      C4308   1.403       .  A
C4307      H4316   1.083       .  S
C4308      C4314   1.407       .  A
C4308      C4309   1.414       .  A
C4309      C4311   1.400       .  A
C4309      C4310   1.402       .  A
C4310      H4317   1.084       .  S
C4311      C4312   1.394       .  A
C4311      H4318   1.084       .  S
C4312      C4313   1.406       .  A
C4312      H4319   1.083       .  S
C4313      C4314   1.407       .  A
C4314      H4320   1.084       .  S
