geometry optimzed in LAMMPS
_audit_creation_date              2020-11-30 
_audit_creation_method            'lammps2cif' 
_symmetry_space_group_name_H-M    'P1' 
_symmetry_Int_Tables_number       1 
_symmetry_cell_setting            triclinic 
loop_ 
_symmetry_equiv_pos_as_xyz 
  x,y,z 
_cell_length_a                    42.81093463 
_cell_length_b                    37.602454412622784 
_cell_length_c                    34.94292578106892 
_cell_angle_alpha                 94.00666629982656 
_cell_angle_beta                  90.34300248646062 
_cell_angle_gamma                 125.92447696018867 
loop_ 
_atom_site_label 
_atom_site_type_symbol 
_atom_site_fract_x 
_atom_site_fract_y 
_atom_site_fract_z 
_atom_site_charge 
C1          C  0.34520114  0.17933379  0.03773668     0.32000
C2          C  0.34795316  0.18699413  0.45920358     0.32000
C3          C  0.30608028  0.15776050  0.01521082    -0.04200
C4          C  0.36864697  0.22618046  0.02525692    -0.05000
C5          C  0.36214641  0.15857974  0.01443030    -0.04900
C6          C  0.30740600  0.16211146  0.47558501    -0.04200
C7          C  0.36993701  0.23054727  0.48568632    -0.05000
C8          C  0.36387483  0.16288594  0.47481759    -0.04900
C9          C  0.26983115  0.14242301  0.46158943    -0.30200
N10         N  0.24629210  0.12565664  0.49116761     0.16300
C11         C  0.26781922  0.13438766  0.02374538    -0.30300
H12         H  0.25621132  0.12439853  0.05155317     0.18200
C13         C  0.38810300  0.27486922  0.48196782    -0.29200
N14         N  0.39873860  0.29657447  0.01752786     0.15000
C15         C  0.38695795  0.26747252  0.04422255    -0.29200
C16         C  0.38058331  0.14326914  0.45954629    -0.29500
N17         N  0.38826817  0.12684007  0.48853649     0.15500
H18         H  0.38696483  0.14144196  0.42984707     0.18100
C19         C  0.37658417  0.13508665  0.02173829    -0.29500
H20         H  0.37849569  0.12433885  0.04899888     0.18100
H21         H  0.39065455  0.27567571  0.07500783     0.18100
H22         H  0.26028193  0.14073452  0.43233997     0.18200
H23         H  0.39220609  0.29047310  0.45579368     0.18100
C24         C  0.34935666  0.19069012  0.28849618     0.32000
C25         C  0.34641095  0.18155714  0.20887696     0.32000
C26         C  0.30903297  0.16551028  0.26785283    -0.04200
C27         C  0.37120639  0.23405597  0.26842123    -0.05000
C28         C  0.36558174  0.16681055  0.27020410    -0.04900
C29         C  0.30713658  0.16016742  0.22765111    -0.04200
C30         C  0.36970429  0.22893234  0.22812928    -0.05000
C31         C  0.36413398  0.16168102  0.23001426    -0.04900
C32         C  0.26862239  0.13858896  0.21572705    -0.30200
N33         N  0.24817668  0.13234530  0.24725646     0.16300
C34         C  0.27235648  0.14866543  0.27903679    -0.30300
H35         H  0.26386824  0.14909312  0.30807801     0.18200
C36         C  0.38817899  0.27007731  0.21505801    -0.29200
N37         N  0.40034667  0.29991463  0.24587433     0.15000
C38         C  0.38991151  0.27868910  0.27843253    -0.29200
C39         C  0.37951943  0.13852230  0.22085067    -0.29500
N40         N  0.39085240  0.13111846  0.25393988     0.15500
H41         H  0.38188678  0.12714532  0.19248617     0.18100
C42         C  0.38235211  0.14797591  0.28415707    -0.29500
H43         H  0.38793117  0.14658279  0.31406658     0.18100
H44         H  0.39470874  0.29474414  0.30696236     0.18100
H45         H  0.25629089  0.12869956  0.18649917     0.18200
H46         H  0.39181886  0.27767911  0.18537720     0.18100
C47         C  0.13345194  0.06258512  0.00685698     0.78400
Tb48       Tb  0.46347552  0.01949260  0.03370136     1.80700
O49         O  0.12761010  0.06145313  0.04206727    -0.49600
O50         O  0.08293794  0.49563649  0.08569240    -0.57000
C51         C  0.05920497  0.10679447  0.03583592     0.94300
O52         O  0.44505037  0.06732391  0.03904642    -0.56500
Tb53       Tb  0.05980405  0.01620083  0.03639851     1.78100
O54         O  0.39577598  0.47084803  0.02767697    -0.57000
O55         O  0.50013138  0.44747008  0.03712482    -0.75900
O56         O  0.07488526  0.08684932  0.03737400    -0.75200
O57         O  0.02600542  0.99351882  0.47774505    -0.60400
C58         C  0.46398469  0.42889745  0.03388757     0.93900
O59         O  0.49834355  0.04453736  0.09221398    -0.72400
C60         C  0.38975480  0.97072942  0.06283365     0.77300
C61         C  0.08255234  0.46644318  0.06516191     0.78300
O62         O  0.10275720  0.04164261  0.98557019    -0.57600
O63         O  0.06940009  0.46061375  0.03123164    -0.49600
O64         O  0.47418231  0.99533838  0.47613562    -0.75600
O65         O  0.04856104  0.03982394  0.09381057    -0.59600
C66         C  0.02694488  0.04893057  0.10878549     0.92100
C67         C  0.99687557  0.98785724  0.46117216     0.93300
C68         C  0.43912732  0.06733072  0.50380972     0.77600
O69         O  0.42034608  0.99378438  0.08426093    -0.49000
O70         O  0.44664804  0.54495758  0.48272826    -0.50100
O71         O  0.44833624  0.44877226  0.03142388    -0.63000
O72         O  0.02305319  0.08839934  0.03399694    -0.64100
C73         C  0.13474932  0.07175893  0.26168374     0.78400
Tb74       Tb  0.46431703  0.01513629  0.28579233     1.80700
O75         O  0.12512114  0.07293260  0.29548278    -0.49600
O76         O  0.08125743  0.49081505  0.32685519    -0.57000
C77         C  0.05163659  0.09969413  0.31562903     0.94300
O78         O  0.45332954  0.06881058  0.30149762    -0.56500
Tb79       Tb  0.05846130  0.01757690  0.28352165     1.78100
O80         O  0.39770003  0.46101240  0.27300703    -0.57000
O81         O  0.99945485  0.44776149  0.27005896    -0.75900
O82         O  0.06900749  0.08619389  0.29732865    -0.75200
O83         O  0.03113292  0.01590739  0.22564175    -0.60400
C84         C  0.46679708  0.43256220  0.25351199     0.93900
O85         O  0.47122589  0.97467647  0.32773904    -0.72400
C86         C  0.38779128  0.96227453  0.30672487     0.77300
C87         C  0.08307899  0.46599224  0.30223996     0.78300
O88         O  0.10648255  0.04558290  0.23810527    -0.57600
O89         O  0.07097059  0.46502643  0.26898390    -0.49600
O90         O  0.50900157  0.05554270  0.24088219    -0.75600
O91         O  0.03450525  0.01665333  0.34280551    -0.59600
C92         C  0.99979312  0.98884214  0.35070734     0.92100
C93         C  0.02498939  0.04385000  0.21839177     0.93300
C94         C  0.43906089  0.06651186  0.26889524     0.77600
O95         O  0.41588247  0.98837775  0.33065524    -0.49000
O96         O  0.43853143  0.53995051  0.24416243    -0.50100
O97         O  0.45591105  0.45653636  0.24567428    -0.63000
O98         O  0.01687219  0.07400143  0.32528473    -0.64100
C99         C  0.17865268  0.35629370  0.03139847     0.32000
C100        C  0.17532918  0.34808191  0.10987377     0.32000
C101        C  0.16116182  0.37642061  0.05452069    -0.04200
C102        C  0.15547485  0.30939982  0.04364427    -0.05000
C103        C  0.21767658  0.37815812  0.05423488    -0.04900
C104        C  0.15908353  0.37186867  0.09410525    -0.04200
C105        C  0.15399853  0.30480024  0.08316150    -0.05000
C106        C  0.21606070  0.37347864  0.09383949    -0.04900
C107        C  0.14158534  0.39074468  0.10898441    -0.30200
N108        N  0.13383378  0.40693351  0.07978201     0.16300
C109        C  0.14621367  0.39926142  0.04685015    -0.30500
H110        H  0.14438887  0.40990533  0.01948977     0.18200
C111        C  0.13579236  0.26049698  0.08672582    -0.29200
N112        N  0.12518844  0.23898674  0.05110130     0.15000
C113        C  0.13706424  0.26819768  0.02450453    -0.29200
C114        C  0.25343311  0.39220722  0.10790085    -0.29500
N115        N  0.27712997  0.40880820  0.07842565     0.15500
H116        H  0.26268144  0.39301727  0.13704467     0.18100
C117        C  0.25593873  0.40096699  0.04586049    -0.29500
H118        H  0.26778157  0.41090892  0.01813309     0.18100
H119        H  0.13318196  0.26009740  0.99369861     0.18100
H120        H  0.13471451  0.39221957  0.13854749     0.18200
H121        H  0.13140321  0.24472223  0.11285829     0.18100
C122        C  0.17210029  0.34173436  0.28054558     0.32000
C123        C  0.17627684  0.35153799  0.36021167     0.32000
C124        C  0.15878175  0.36857673  0.29929045    -0.04200
C125        C  0.14800919  0.29850304  0.30084792    -0.05000
C126        C  0.21236682  0.36409419  0.30072023    -0.04900
C127        C  0.16091858  0.37397814  0.33948308    -0.04200
C128        C  0.15025649  0.30400833  0.34119997    -0.05000
C129        C  0.21487235  0.37000595  0.34089610    -0.04900
C130        C  0.14618418  0.39761402  0.34930590    -0.30200
N131        N  0.13448861  0.40510870  0.31656797     0.16300
C132        C  0.14212772  0.38779555  0.28594611    -0.30300
H133        H  0.13518426  0.38820701  0.25619795     0.18200
C134        C  0.12886765  0.26274836  0.35445518    -0.29200
N135        N  0.11399288  0.23239644  0.32370079     0.15000
C136        C  0.12576519  0.25339993  0.29105209    -0.29200
C137        C  0.25358405  0.39225381  0.35230616    -0.29500
N138        N  0.27361841  0.39798208  0.32059272     0.15500
H139        H  0.26654905  0.40406804  0.38125544     0.18100
C140        C  0.24897327  0.38096009  0.28908538    -0.29500
H141        H  0.25727520  0.38115856  0.25985967     0.18100
H142        H  0.11958899  0.23664249  0.26263159     0.18100
H143        H  0.14357769  0.40822508  0.37791197     0.18200
H144        H  0.12515069  0.25535891  0.38418881     0.18100
C145        C  0.20405602  0.35179333  0.46608740    -0.11400
C146        C  0.17898457  0.35729688  0.48717274     0.10800
C147        C  0.14944584  0.35441653  0.46566691    -0.11400
C148        C  0.14882360  0.35312838  0.42531348    -0.11400
C149        C  0.17750622  0.35425690  0.40463912     0.10800
C150        C  0.20323612  0.35013855  0.42577306    -0.11400
H151        H  0.22338796  0.34678809  0.48055637     0.14800
H152        H  0.12546593  0.35084757  0.47962991     0.14800
H153        H  0.12469159  0.34919071  0.41035771     0.14800
H154        H  0.22186123  0.34372352  0.41124203     0.14800
C155        C  0.20062296  0.38215720  0.17917761    -0.11400
C156        C  0.17344249  0.34518481  0.15397336     0.10800
C157        C  0.14281459  0.30804207  0.17096090    -0.11400
C158        C  0.14222990  0.30600988  0.21116168    -0.11400
C159        C  0.17183573  0.34145505  0.23611645     0.10800
C160        C  0.19973974  0.38038051  0.21922263    -0.11400
H161        H  0.22260319  0.41296364  0.16793815     0.14800
H162        H  0.11812802  0.28110992  0.15358087     0.14800
H163        H  0.11735405  0.27754622  0.22238968     0.14800
H164        H  0.22105514  0.41002098  0.23718754     0.14800
C165        C  0.07230794  0.14663575  0.32383373    -0.11300
C166        C  0.09133512  0.18641307  0.32515686    -0.12800
C167        C  0.34791135  0.43813355  0.31605793    -0.11300
C168        C  0.31368914  0.41932448  0.31972984    -0.12800
C169        C  0.09963726  0.44304633  0.31044913    -0.11300
C170        C  0.11560008  0.42545912  0.31432997    -0.12800
C171        C  0.08413914  0.15379615  0.03826301    -0.11300
C172        C  0.10383664  0.19332045  0.04329469    -0.12800
C173        C  0.35129087  0.44801400  0.07608523    -0.11300
C174        C  0.31716643  0.42959558  0.07989822    -0.12800
C175        C  0.11448424  0.42681555  0.08153957    -0.11300
C176        C  0.09845627  0.44424938  0.07768795    -0.12800
C177        C  0.99239257  0.97566726  0.38800468    -0.11300
C178        C  0.99085581  0.97497739  0.42176850    -0.12800
C179        C  0.03302083  0.05960212  0.18195699    -0.11300
C180        C  0.03357469  0.06172706  0.14828154    -0.12800
C181        C  0.40846120  0.10935162  0.25697198    -0.11300
C182        C  0.42324861  0.09047503  0.26129488    -0.12800
C183        C  0.42120068  0.34572039  0.24445580    -0.11300
C184        C  0.44065955  0.38546966  0.24545562    -0.12800
C185        C  0.17445328  0.09543012  0.25192681    -0.11300
C186        C  0.20841293  0.11284758  0.24787706    -0.12800
C187        C  0.42310909  0.08892529  0.49008632    -0.11300
C188        C  0.40718240  0.10647089  0.48630650    -0.12800
C189        C  0.41968612  0.34226151  0.02532320    -0.11300
C190        C  0.43911374  0.38179568  0.03077159    -0.12800
C191        C  0.20605889  0.10370227  0.98965226    -0.11300
C192        C  0.17183963  0.08477652  0.99339258    -0.12800
C193        C  0.32213333  0.15151513  0.39037715    -0.11400
C194        C  0.34929313  0.18910443  0.41505331     0.10800
C195        C  0.37937237  0.22611141  0.39751653    -0.11400
C196        C  0.37935421  0.22740189  0.35727368    -0.11400
C197        C  0.34961525  0.19140991  0.33287240     0.10800
C198        C  0.32237904  0.15259151  0.35026513    -0.11400
H199        H  0.30066449  0.12081504  0.40210478     0.14800
H200        H  0.40411377  0.25350676  0.41446269     0.14800
H201        H  0.40378029  0.25587316  0.34547642     0.14800
H202        H  0.30118264  0.12252803  0.33270112     0.14800
C203        C  0.37393197  0.18011426  0.14364241    -0.11400
C204        C  0.34563543  0.17967822  0.16445079     0.10800
C205        C  0.32078065  0.18539799  0.14358181    -0.11400
C206        C  0.32031452  0.18458201  0.10326408    -0.11400
C207        C  0.34490019  0.17836197  0.08198940     0.10800
C208        C  0.37369162  0.17970826  0.10335066    -0.11400
H209        H  0.39768120  0.18313297  0.15840394     0.14800
H210        H  0.30229258  0.19185309  0.15842270     0.14800
H211        H  0.30138243  0.19027267  0.08889534     0.14800
H212        H  0.39743229  0.18272866  0.08935570     0.14800
C213        C  0.34520219  0.17933607  0.53773859     0.32000
C214        C  0.34795127  0.18698773  0.95920051     0.32000
C215        C  0.30608111  0.15775732  0.51521221    -0.04200
C216        C  0.36864277  0.22618353  0.52526128    -0.05000
C217        C  0.36215349  0.15858951  0.51443217    -0.04900
C218        C  0.30740506  0.16211217  0.97558298    -0.04200
C219        C  0.36994028  0.23054181  0.98568150    -0.05000
C220        C  0.36386692  0.16287393  0.97481525    -0.04900
C221        C  0.26983066  0.14242454  0.96158690    -0.30200
N222        N  0.24629165  0.12566156  0.99116528     0.16300
C223        C  0.26782006  0.13438152  0.52374688    -0.30300
H224        H  0.25621257  0.12439191  0.55155489     0.18200
C225        C  0.38810670  0.27486321  0.98196046    -0.29200
N226        N  0.39873257  0.29657816  0.51753631     0.15000
C227        C  0.38695156  0.26747424  0.54422924    -0.29200
C228        C  0.38057262  0.14325395  0.95954432    -0.29500
N229        N  0.38825741  0.12682556  0.98853501     0.15500
H230        H  0.38695412  0.14142608  0.92984510     0.18100
C231        C  0.37659247  0.13509766  0.52173946    -0.29500
H232        H  0.37850155  0.12434643  0.54899932     0.18100
H233        H  0.39064830  0.27567539  0.57501474     0.18100
H234        H  0.26028134  0.14073233  0.93233634     0.18200
H235        H  0.39220687  0.29046492  0.95578550     0.18100
C236        C  0.34935732  0.19068701  0.78849429     0.32000
C237        C  0.34640958  0.18155598  0.70887568     0.32000
C238        C  0.30903335  0.16550988  0.76785214    -0.04200
C239        C  0.37120814  0.23405377  0.76842053    -0.05000
C240        C  0.36558023  0.16680582  0.77020026    -0.04900
C241        C  0.30713583  0.16016776  0.72765051    -0.04200
C242        C  0.36970499  0.22893098  0.72812858    -0.05000
C243        C  0.36413098  0.16167709  0.73001052    -0.04900
C244        C  0.26862158  0.13859133  0.71572759    -0.30200
N245        N  0.24817710  0.13234879  0.74725783     0.16300
C246        C  0.27235770  0.14866738  0.77903741    -0.30300
H247        H  0.26387060  0.14909569  0.80807900     0.18200
C248        C  0.38817825  0.27007606  0.71505803    -0.29200
N249        N  0.40034643  0.29991293  0.74587475     0.15000
C250        C  0.38991274  0.27868677  0.77843274    -0.29200
C251        C  0.37951448  0.13851705  0.72084405    -0.29500
N252        N  0.39084853  0.13111209  0.75393165     0.15500
H253        H  0.38188032  0.12714035  0.69247846     0.18100
C254        C  0.38235028  0.14796970  0.78415059    -0.29500
H255        H  0.38793099  0.14657607  0.81405977     0.18100
H256        H  0.39471031  0.29474087  0.80696292     0.18100
H257        H  0.25628922  0.12870249  0.68650032     0.18200
H258        H  0.39181635  0.27767821  0.68537709     0.18100
C259        C  0.13345345  0.06259089  0.50686330     0.78400
Tb260      Tb  0.46347699  0.01949634  0.53370130     1.80700
O261        O  0.12761091  0.06146608  0.54207349    -0.49600
O262        O  0.08294221  0.49564173  0.58569250    -0.57000
C263        C  0.05920730  0.10679848  0.53583761     0.94300
O264        O  0.44504750  0.06732357  0.53904852    -0.56500
Tb265      Tb  0.05980435  0.01620507  0.53640248     1.78100
O266        O  0.39577696  0.47086247  0.52767359    -0.57000
O267        O  0.50013170  0.44747420  0.53713517    -0.75900
O268        O  0.07488826  0.08685441  0.53737844    -0.75200
O269        O  0.02600378  0.99351445  0.97774158    -0.60400
C270        C  0.46398503  0.42890160  0.53389547     0.93900
O271        O  0.49834480  0.04454688  0.59221426    -0.72400
C272        C  0.38975533  0.97072817  0.56283084     0.77300
C273        C  0.08255542  0.46644862  0.56516023     0.78300
O274        O  0.10275895  0.04164181  0.48557574    -0.57600
O275        O  0.06940031  0.46061848  0.53123116    -0.49600
O276        O  0.47418525  0.99534272  0.97613396    -0.75600
O277        O  0.04855536  0.03982124  0.59381469    -0.59600
C278        C  0.02694207  0.04893330  0.60878780     0.92100
C279        C  0.99687605  0.98785846  0.96116933     0.93300
C280        C  0.43912393  0.06732429  0.00380783     0.77600
O281        O  0.42034625  0.99377045  0.58425967    -0.49000
O282        O  0.44664009  0.54494626  0.98272708    -0.50100
O283        O  0.44833715  0.44877633  0.53142638    -0.63000
O284        O  0.02305541  0.08840234  0.53399638    -0.64100
C285        C  0.13475013  0.07176620  0.76168608     0.78400
Tb286      Tb  0.46431295  0.01513351  0.78579156     1.80700
O287        O  0.12512129  0.07292742  0.79548705    -0.49600
O288        O  0.08124994  0.49080781  0.82685154    -0.57000
C289        C  0.05163197  0.09969280  0.81563279     0.94300
O290        O  0.45332410  0.06880713  0.80148973    -0.56500
Tb291      Tb  0.05846056  0.01757862  0.78351994     1.78100
O292        O  0.39769431  0.46101164  0.77301501    -0.57000
O293        O  0.99945512  0.44776261  0.77005149    -0.75900
O294        O  0.06900428  0.08619376  0.79733326    -0.75200
O295        O  0.03112919  0.01590688  0.72564164    -0.60400
C296        C  0.46679508  0.43256096  0.75350829     0.93900
O297        O  0.47122320  0.97467079  0.82773307    -0.72400
C298        C  0.38778993  0.96227858  0.80673405     0.77300
C299        C  0.08307674  0.46599101  0.80223392     0.78300
O300        O  0.10648337  0.04560097  0.73810421    -0.57600
O301        O  0.07097426  0.46503257  0.76897719    -0.49600
O302        O  0.50900154  0.05554484  0.74088606    -0.75600
O303        O  0.03450200  0.01665397  0.84280235    -0.59600
C304        C  0.99979005  0.98884096  0.85070345     0.92100
C305        C  0.02498685  0.04385082  0.71839351     0.93300
C306        C  0.43905765  0.06650701  0.76888562     0.77600
O307        O  0.41588416  0.98838359  0.83066087    -0.49000
O308        O  0.43852954  0.53994468  0.74415504    -0.50100
O309        O  0.45590574  0.45653280  0.74567336    -0.63000
O310        O  0.01686641  0.07399956  0.82528550    -0.64100
C311        C  0.17865485  0.35629663  0.53139657     0.32000
C312        C  0.17533020  0.34808543  0.60987269     0.32000
C313        C  0.16116636  0.37642650  0.55451816    -0.04200
C314        C  0.15547418  0.30940311  0.54364285    -0.05000
C315        C  0.21767807  0.37815851  0.55423335    -0.04900
C316        C  0.15908757  0.37187526  0.59410311    -0.04200
C317        C  0.15399735  0.30480377  0.58316022    -0.05000
C318        C  0.21606169  0.37347909  0.59383810    -0.04900
C319        C  0.14158998  0.39075252  0.60898069    -0.30200
N320        N  0.13383912  0.40694083  0.57977723     0.16300
C321        C  0.14621854  0.39926710  0.54684584    -0.30500
H322        H  0.14439262  0.40990835  0.51948440     0.18200
C323        C  0.13579020  0.26050043  0.58672467    -0.29200
N324        N  0.12518599  0.23899015  0.55110024     0.15000
C325        C  0.13706264  0.26820084  0.52450306    -0.29200
C326        C  0.25343373  0.39220545  0.60789921    -0.29500
N327        N  0.27713074  0.40880522  0.57842403     0.15500
H328        H  0.26268187  0.39301510  0.63704328     0.18100
C329        C  0.25594014  0.40096591  0.54585898    -0.29500
H330        H  0.26778347  0.41090870  0.51813237     0.18100
H331        H  0.13318148  0.26010070  0.49369795     0.18100
H332        H  0.13471832  0.39222784  0.63854337     0.18200
H333        H  0.13140157  0.24472585  0.61285680     0.18100
C334        C  0.17210061  0.34173307  0.78054723     0.32000
C335        C  0.17627292  0.35153689  0.86021373     0.32000
C336        C  0.15877940  0.36857378  0.79929004    -0.04200
C337        C  0.14800944  0.29850146  0.80085016    -0.05000
C338        C  0.21236662  0.36409535  0.80072466    -0.04900
C339        C  0.16091352  0.37397478  0.83948279    -0.04200
C340        C  0.15025517  0.30400723  0.84120227    -0.05000
C341        C  0.21486953  0.37000693  0.84090047    -0.04900
C342        C  0.14617808  0.39761022  0.84930305    -0.30200
N343        N  0.13448508  0.40510560  0.81656365     0.16300
C344        C  0.14212685  0.38779336  0.78594332    -0.30300
H345        H  0.13518646  0.38820627  0.75619437     0.18200
C346        C  0.12886575  0.26274775  0.85445843    -0.29200
N347        N  0.11399150  0.23239512  0.82370465     0.15000
C348        C  0.12576470  0.25339792  0.79105540    -0.29200
C349        C  0.25358064  0.39225674  0.85231384    -0.29500
N350        N  0.27361778  0.39798703  0.82060230     0.15500
H351        H  0.26654315  0.40407045  0.88126389     0.18100
C352        C  0.24897471  0.38096412  0.78909321    -0.29500
H353        H  0.25727930  0.38116366  0.75986800     0.18100
H354        H  0.11958767  0.23663994  0.76263502     0.18100
H355        H  0.14356994  0.40822138  0.87790806     0.18200
H356        H  0.12514727  0.25535912  0.88419206     0.18100
C357        C  0.20405117  0.35178822  0.96608873    -0.11400
C358        C  0.17898189  0.35729472  0.98717483     0.10800
C359        C  0.14944498  0.35441900  0.96566992    -0.11400
C360        C  0.14882262  0.35313217  0.92531655    -0.11400
C361        C  0.17750248  0.35425588  0.90464128     0.10800
C362        C  0.20323001  0.35013282  0.92577434    -0.11400
H363        H  0.22338248  0.34678181  0.98055733     0.14800
H364        H  0.12546600  0.35085141  0.97963294     0.14800
H365        H  0.12469176  0.34919767  0.91036171     0.14800
H366        H  0.22185306  0.34371501  0.91124242     0.14800
C367        C  0.20062566  0.38215751  0.67917829    -0.11400
C368        C  0.17344318  0.34518722  0.65397310     0.10800
C369        C  0.14281506  0.30804420  0.67096077    -0.11400
C370        C  0.14223138  0.30601026  0.71116182    -0.11400
C371        C  0.17183804  0.34145397  0.73611731     0.10800
C372        C  0.19974310  0.38037925  0.71922351    -0.11400
H373        H  0.22260696  0.41296378  0.66793946     0.14800
H374        H  0.11812805  0.28111363  0.65358116     0.14800
H375        H  0.11735575  0.27754633  0.72238971     0.14800
H376        H  0.22105948  0.41001904  0.73718861     0.14800
C377        C  0.07230342  0.14663428  0.82383952    -0.11300
C378        C  0.09133194  0.18641175  0.82516210    -0.12800
C379        C  0.34791133  0.43814040  0.81607148    -0.11300
C380        C  0.31368895  0.41933109  0.81974278    -0.12800
C381        C  0.09963426  0.44304380  0.81044185    -0.11300
C382        C  0.11559675  0.42545617  0.81432327    -0.12800
C383        C  0.08414039  0.15379996  0.53826355    -0.11300
C384        C  0.10383607  0.19332415  0.54329408    -0.12800
C385        C  0.35129122  0.44800936  0.57608262    -0.11300
C386        C  0.31716686  0.42959087  0.57989622    -0.12800
C387        C  0.11448933  0.42682242  0.58153373    -0.11300
C388        C  0.09846077  0.44425558  0.57768320    -0.12800
C389        C  0.99238961  0.97566867  0.88800143    -0.11300
C390        C  0.99085517  0.97498023  0.92176541    -0.12800
C391        C  0.03301713  0.05960340  0.68195913    -0.11300
C392        C  0.03357065  0.06172876  0.64828385    -0.12800
C393        C  0.40845767  0.10934547  0.75696055    -0.11300
C394        C  0.42324549  0.09046925  0.76128204    -0.12800
C395        C  0.42119973  0.34571871  0.74445627    -0.11300
C396        C  0.44065821  0.38546792  0.74545442    -0.12800
C397        C  0.17445444  0.09543772  0.75192987    -0.11300
C398        C  0.20841385  0.11285361  0.74787971    -0.12800
C399        C  0.42310275  0.08891571  0.99008441    -0.11300
C400        C  0.40717343  0.10645843  0.98630529    -0.12800
C401        C  0.41968274  0.34226538  0.52533390    -0.11300
C402        C  0.43911304  0.38179978  0.53078240    -0.12800
C403        C  0.20605984  0.10370119  0.48965679    -0.11300
C404        C  0.17184131  0.08477945  0.49339944    -0.12800
C405        C  0.32213104  0.15150974  0.89037380    -0.11400
C406        C  0.34929236  0.18909771  0.91505025     0.10800
C407        C  0.37937425  0.22610318  0.89751390    -0.11400
C408        C  0.37935657  0.22739483  0.85727135    -0.11400
C409        C  0.34961611  0.19140500  0.83286999     0.10800
C410        C  0.32237791  0.15258668  0.85026187    -0.11400
H411        H  0.30066010  0.12081024  0.90210115     0.14800
H412        H  0.40411714  0.25349654  0.91446028     0.14800
H413        H  0.40378388  0.25586560  0.84547400     0.14800
H414        H  0.30118066  0.12252439  0.83269756     0.14800
C415        C  0.37393244  0.18011644  0.64364291    -0.11400
C416        C  0.34563419  0.17967754  0.66445031     0.10800
C417        C  0.32077865  0.18539603  0.64358148    -0.11400
C418        C  0.32031312  0.18458036  0.60326413    -0.11400
C419        C  0.34490018  0.17836221  0.58199031     0.10800
C420        C  0.37369262  0.17971061  0.60335155    -0.11400
H421        H  0.39768257  0.18313746  0.65840492     0.14800
H422        H  0.30229021  0.19185049  0.65842193     0.14800
H423        H  0.30138048  0.19027017  0.58889487     0.14800
H424        H  0.39743449  0.18273371  0.58935733     0.14800
C425        C  0.34520118  0.67933386  0.03773671     0.32000
C426        C  0.34795316  0.68699412  0.45920359     0.32000
C427        C  0.30608028  0.65776056  0.01521086    -0.04200
C428        C  0.36864704  0.72618054  0.02525694    -0.05000
C429        C  0.36214646  0.65857979  0.01443034    -0.04900
C430        C  0.30740603  0.66211148  0.47558502    -0.04200
C431        C  0.36993703  0.73054727  0.48568632    -0.05000
C432        C  0.36387487  0.66288597  0.47481764    -0.04900
C433        C  0.26983116  0.64242293  0.46158943    -0.30200
N434        N  0.24629214  0.62565654  0.49116763     0.16300
C435        C  0.26781919  0.63438763  0.02374540    -0.30300
H436        H  0.25621127  0.62439851  0.05155308     0.18200
C437        C  0.38810298  0.77486921  0.48196780    -0.29200
N438        N  0.39873871  0.79657457  0.01752786     0.15000
C439        C  0.38695814  0.76747265  0.04422258    -0.29200
C440        C  0.38058332  0.64326917  0.45954632    -0.29500
N441        N  0.38826811  0.62683999  0.48853646     0.15500
H442        H  0.38696483  0.64144207  0.42984708     0.18100
C443        C  0.37658411  0.63508655  0.02173829    -0.29500
H444        H  0.37849559  0.62433873  0.04899880     0.18100
H445        H  0.39065477  0.77567589  0.07500781     0.18100
H446        H  0.26028190  0.64073440  0.43234000     0.18200
H447        H  0.39220601  0.79047300  0.45579373     0.18100
C448        C  0.34935661  0.69069010  0.28849619     0.32000
C449        C  0.34641090  0.68155713  0.20887698     0.32000
C450        C  0.30903293  0.66551027  0.26785282    -0.04200
C451        C  0.37120636  0.73405599  0.26842124    -0.05000
C452        C  0.36558169  0.66681049  0.27020413    -0.04900
C453        C  0.30713653  0.66016745  0.22765111    -0.04200
C454        C  0.36970425  0.72893234  0.22812928    -0.05000
C455        C  0.36413394  0.66168101  0.23001430    -0.04900
C456        C  0.26862234  0.63858904  0.21572706    -0.30200
N457        N  0.24817660  0.63234528  0.24725649     0.16300
C458        C  0.27235645  0.64866541  0.27903677    -0.30300
H459        H  0.26386821  0.64909313  0.30807811     0.18200
C460        C  0.38817907  0.77007730  0.21505801    -0.29200
N461        N  0.40034678  0.79991466  0.24587430     0.15000
C462        C  0.38991161  0.77868916  0.27843251    -0.29200
C463        C  0.37951948  0.63852237  0.22085068    -0.29500
N464        N  0.39085249  0.63111852  0.25393985     0.15500
H465        H  0.38188677  0.62714538  0.19248617     0.18100
C466        C  0.38235208  0.64797582  0.28415708    -0.29500
H467        H  0.38793109  0.64658260  0.31406651     0.18100
H468        H  0.39470889  0.79474427  0.30696239     0.18100
H469        H  0.25629081  0.62869968  0.18649918     0.18200
H470        H  0.39181897  0.77767909  0.18537711     0.18100
C471        C  0.13345204  0.56258520  0.00685699     0.78400
Tb472      Tb  0.46347561  0.51949263  0.03370138     1.80700
O473        O  0.12761020  0.56145304  0.04206727    -0.49600
O474        O  0.08293771  0.99563632  0.08569244    -0.57000
C475        C  0.05920506  0.60679452  0.03583592     0.94300
O476        O  0.44505058  0.56732406  0.03904632    -0.56500
Tb477      Tb  0.05980417  0.51620090  0.03639850     1.78100
O478        O  0.39577588  0.97084795  0.02767698    -0.57000
O479        O  0.50013135  0.94747009  0.03712479    -0.75900
O480        O  0.07488547  0.58684948  0.03737401    -0.75200
O481        O  0.02600535  0.49351893  0.47774502    -0.60400
C482        C  0.46398467  0.92889752  0.03388764     0.93900
O483        O  0.49834369  0.54453741  0.09221398    -0.72400
C484        C  0.38975483  0.47072938  0.06283363     0.77300
C485        C  0.08255225  0.96644313  0.06516191     0.78300
O486        O  0.10275732  0.54164275  0.98557018    -0.57600
O487        O  0.06940005  0.96061376  0.03123162    -0.49600
O488        O  0.47418232  0.49533821  0.47613566    -0.75600
O489        O  0.04856109  0.53982402  0.09381057    -0.59600
C490        C  0.02694486  0.54893054  0.10878553     0.92100
C491        C  0.99687542  0.48785717  0.46117215     0.93300
C492        C  0.43912744  0.56733083  0.50380971     0.77600
O493        O  0.42034607  0.49378433  0.08426094    -0.49000
O494        O  0.44664788  0.04495743  0.48272825    -0.50100
O495        O  0.44833625  0.94877237  0.03142412    -0.63000
O496        O  0.02305327  0.58839927  0.03399695    -0.64100
C497        C  0.13474931  0.57175895  0.26168375     0.78400
Tb498      Tb  0.46431696  0.51513622  0.28579234     1.80700
O499        O  0.12512114  0.57293274  0.29548278    -0.49600
O500        O  0.08125737  0.99081502  0.32685521    -0.57000
C501        C  0.05163662  0.59969417  0.31562909     0.94300
O502        O  0.45332934  0.56881036  0.30149769    -0.56500
Tb503      Tb  0.05846139  0.51757697  0.28352164     1.78100
O504        O  0.39770008  0.96101256  0.27300701    -0.57000
O505        O  0.99945481  0.94776140  0.27005903    -0.75900
O506        O  0.06900755  0.58619397  0.29732871    -0.75200
O507        O  0.03113310  0.51590749  0.22564178    -0.60400
C508        C  0.46679711  0.93256215  0.25351201     0.93900
O509        O  0.47122584  0.47467643  0.32773905    -0.72400
C510        C  0.38779120  0.46227445  0.30672486     0.77300
C511        C  0.08307897  0.96599227  0.30223994     0.78300
O512        O  0.10648258  0.54558289  0.23810525    -0.57600
O513        O  0.07097056  0.96502648  0.26898388    -0.49600
O514        O  0.50900165  0.55554277  0.24088225    -0.75600
O515        O  0.03450536  0.51665344  0.34280549    -0.59600
C516        C  0.99979322  0.48884228  0.35070737     0.92100
C517        C  0.02498954  0.54385007  0.21839180     0.93300
C518        C  0.43906092  0.56651183  0.26889523     0.77600
O519        O  0.41588236  0.48837770  0.33065525    -0.49000
O520        O  0.43853128  0.03995042  0.24416249    -0.50100
O521        O  0.45591108  0.95653631  0.24567433    -0.63000
O522        O  0.01687222  0.57400147  0.32528480    -0.64100
C523        C  0.17865266  0.85629369  0.03139847     0.32000
C524        C  0.17532913  0.84808179  0.10987377     0.32000
C525        C  0.16116166  0.87642042  0.05452068    -0.04200
C526        C  0.15547496  0.80939984  0.04364425    -0.05000
C527        C  0.21767655  0.87815816  0.05423490    -0.04900
C528        C  0.15908338  0.87186846  0.09410523    -0.04200
C529        C  0.15399858  0.80480018  0.08316149    -0.05000
C530        C  0.21606066  0.87347856  0.09383950    -0.04900
C531        C  0.14158529  0.89074457  0.10898443    -0.30200
N532        N  0.13383371  0.90693340  0.07978204     0.16300
C533        C  0.14621351  0.89926125  0.04685015    -0.30500
H534        H  0.14438877  0.90990523  0.01948984     0.18200
C535        C  0.13579237  0.76049693  0.08672574    -0.29200
N536        N  0.12518842  0.73898678  0.05110122     0.15000
C537        C  0.13706436  0.76819776  0.02450447    -0.29200
C538        C  0.25343308  0.89220711  0.10790086    -0.29500
N539        N  0.27712996  0.90880819  0.07842566     0.15500
H540        H  0.26268139  0.89301714  0.13704457     0.18100
C541        C  0.25593870  0.90096694  0.04586049    -0.29500
H542        H  0.26778154  0.91090876  0.01813312     0.18100
H543        H  0.13318212  0.76009757  0.99369852     0.18100
H544        H  0.13471461  0.89221958  0.13854754     0.18200
H545        H  0.13140310  0.74472202  0.11285827     0.18100
C546        C  0.17210028  0.84173442  0.28054559     0.32000
C547        C  0.17627682  0.85153802  0.36021167     0.32000
C548        C  0.15878174  0.86857682  0.29929046    -0.04200
C549        C  0.14800914  0.79850306  0.30084794    -0.05000
C550        C  0.21236683  0.86409425  0.30072022    -0.04900
C551        C  0.16091859  0.87397824  0.33948309    -0.04200
C552        C  0.15025640  0.80400833  0.34119999    -0.05000
C553        C  0.21487235  0.87000596  0.34089609    -0.04900
C554        C  0.14618418  0.89761412  0.34930591    -0.30200
N555        N  0.13448862  0.90510882  0.31656797     0.16300
C556        C  0.14212769  0.88779564  0.28594609    -0.30300
H557        H  0.13518422  0.88820711  0.25619803     0.18200
C558        C  0.12886755  0.76274830  0.35445518    -0.29200
N559        N  0.11399296  0.73239642  0.32370077     0.15000
C560        C  0.12576529  0.75339993  0.29105210    -0.29200
C561        C  0.25358406  0.89225379  0.35230615    -0.29500
N562        N  0.27361848  0.89798216  0.32059273     0.15500
H563        H  0.26654909  0.90406803  0.38125551     0.18100
C564        C  0.24897332  0.88096024  0.28908538    -0.29500
H565        H  0.25727531  0.88115882  0.25985964     0.18100
H566        H  0.11958920  0.73664250  0.26263158     0.18100
H567        H  0.14357767  0.90822519  0.37791196     0.18200
H568        H  0.12515050  0.75535876  0.38418874     0.18100
C569        C  0.20405601  0.85179334  0.46608740    -0.11400
C570        C  0.17898451  0.85729684  0.48717273     0.10800
C571        C  0.14944585  0.85441661  0.46566690    -0.11400
C572        C  0.14882363  0.85312850  0.42531347    -0.11400
C573        C  0.17750624  0.85425696  0.40463912     0.10800
C574        C  0.20323604  0.85013850  0.42577308    -0.11400
H575        H  0.22338799  0.84678822  0.48055638     0.14800
H576        H  0.12546592  0.85084769  0.47962988     0.14800
H577        H  0.12469168  0.84919087  0.41035768     0.14800
H578        H  0.22186123  0.84372334  0.41124193     0.14800
C579        C  0.20062282  0.88215720  0.17917758    -0.11400
C580        C  0.17344241  0.84518473  0.15397337     0.10800
C581        C  0.14281457  0.80804193  0.17096091    -0.11400
C582        C  0.14222987  0.80600985  0.21116172    -0.11400
C583        C  0.17183571  0.84145507  0.23611645     0.10800
C584        C  0.19973969  0.88038058  0.21922262    -0.11400
H585        H  0.22260298  0.91296360  0.16793808     0.14800
H586        H  0.11812806  0.78110974  0.15358093     0.14800
H587        H  0.11735405  0.77754630  0.22238974     0.14800
H588        H  0.22105496  0.91002095  0.23718741     0.14800
C589        C  0.07230793  0.64663576  0.32383374    -0.11300
C590        C  0.09133518  0.68641305  0.32515683    -0.12800
C591        C  0.34791145  0.93813362  0.31605798    -0.11300
C592        C  0.31368920  0.91932455  0.31972986    -0.12800
C593        C  0.09963727  0.94304643  0.31044907    -0.11300
C594        C  0.11560014  0.92545928  0.31432996    -0.12800
C595        C  0.08413909  0.65379620  0.03826300    -0.11300
C596        C  0.10383655  0.69332049  0.04329461    -0.12800
C597        C  0.35129088  0.94801405  0.07608530    -0.11300
C598        C  0.31716641  0.92959556  0.07989823    -0.12800
C599        C  0.11448429  0.92681561  0.08153960    -0.11300
C600        C  0.09845634  0.94424945  0.07768792    -0.12800
C601        C  0.99239269  0.47566741  0.38800471    -0.11300
C602        C  0.99085570  0.47497732  0.42176850    -0.12800
C603        C  0.03302084  0.55960202  0.18195699    -0.11300
C604        C  0.03357462  0.56172689  0.14828156    -0.12800
C605        C  0.40846126  0.60935162  0.25697193    -0.11300
C606        C  0.42324870  0.59047506  0.26129484    -0.12800
C607        C  0.42120067  0.84572039  0.24445576    -0.11300
C608        C  0.44065956  0.88546964  0.24545561    -0.12800
C609        C  0.17445323  0.59543010  0.25192684    -0.11300
C610        C  0.20841288  0.61284762  0.24787708    -0.12800
C611        C  0.42310915  0.58892533  0.49008628    -0.11300
C612        C  0.40718237  0.60647082  0.48630644    -0.12800
C613        C  0.41968611  0.84226162  0.02532319    -0.11300
C614        C  0.43911369  0.88179579  0.03077160    -0.12800
C615        C  0.20605892  0.60370230  0.98965223    -0.11300
C616        C  0.17183968  0.58477661  0.99339260    -0.12800
C617        C  0.32213331  0.65151501  0.39037715    -0.11400
C618        C  0.34929304  0.68910436  0.41505331     0.10800
C619        C  0.37937223  0.72611127  0.39751651    -0.11400
C620        C  0.37935417  0.72740176  0.35727370    -0.11400
C621        C  0.34961516  0.69140986  0.33287240     0.10800
C622        C  0.32237891  0.65259141  0.35026511    -0.11400
H623        H  0.30066457  0.62081489  0.40210477     0.14800
H624        H  0.40411383  0.75350689  0.41446287     0.14800
H625        H  0.40378036  0.75587309  0.34547639     0.14800
H626        H  0.30118264  0.62252814  0.33270121     0.14800
C627        C  0.37393195  0.68011417  0.14364243    -0.11400
C628        C  0.34563534  0.67967807  0.16445078     0.10800
C629        C  0.32078057  0.68539784  0.14358179    -0.11400
C630        C  0.32031459  0.68458210  0.10326408    -0.11400
C631        C  0.34490028  0.67836209  0.08198942     0.10800
C632        C  0.37369167  0.67970831  0.10335066    -0.11400
H633        H  0.39768102  0.68313286  0.15840384     0.14800
H634        H  0.30229247  0.69185289  0.15842265     0.14800
H635        H  0.30138252  0.69027284  0.08889533     0.14800
H636        H  0.39743231  0.68272871  0.08935573     0.14800
C637        C  0.34520225  0.67933612  0.53773861     0.32000
C638        C  0.34795127  0.68698771  0.95920053     0.32000
C639        C  0.30608119  0.65775739  0.51521222    -0.04200
C640        C  0.36864284  0.72618355  0.52526128    -0.05000
C641        C  0.36215359  0.65858956  0.51443223    -0.04900
C642        C  0.30740505  0.66211219  0.97558301    -0.04200
C643        C  0.36994026  0.73054183  0.98568152    -0.05000
C644        C  0.36386698  0.66287399  0.97481531    -0.04900
C645        C  0.26983067  0.64242461  0.96158690    -0.30200
N646        N  0.24629164  0.62566153  0.99116526     0.16300
C647        C  0.26782016  0.63438156  0.52374691    -0.30300
H648        H  0.25621274  0.62439204  0.55155494     0.18200
C649        C  0.38810666  0.77486325  0.98196047    -0.29200
N650        N  0.39873260  0.79657815  0.51753631     0.15000
C651        C  0.38695155  0.76747424  0.54422925    -0.29200
C652        C  0.38057270  0.64325401  0.95954433    -0.29500
N653        N  0.38825735  0.62682547  0.98853500     0.15500
H654        H  0.38695426  0.64142625  0.92984523     0.18100
C655        C  0.37659247  0.63509758  0.52173947    -0.29500
H656        H  0.37850155  0.62434628  0.54899929     0.18100
H657        H  0.39064825  0.77567535  0.57501473     0.18100
H658        H  0.26028137  0.64073245  0.93233639     0.18200
H659        H  0.39220671  0.79046485  0.95578555     0.18100
C660        C  0.34935733  0.69068705  0.78849428     0.32000
C661        C  0.34640960  0.68155600  0.70887567     0.32000
C662        C  0.30903338  0.66550994  0.76785213    -0.04200
C663        C  0.37120816  0.73405378  0.76842051    -0.05000
C664        C  0.36558016  0.66680578  0.77020025    -0.04900
C665        C  0.30713584  0.66016777  0.72765050    -0.04200
C666        C  0.36970501  0.72893100  0.72812856    -0.05000
C667        C  0.36413091  0.66167705  0.73001051    -0.04900
C668        C  0.26862160  0.63859129  0.71572760    -0.30200
N669        N  0.24817711  0.63234868  0.74725784     0.16300
C670        C  0.27235773  0.64866739  0.77903738    -0.30300
H671        H  0.26387066  0.64909577  0.80807908     0.18200
C672        C  0.38817829  0.77007609  0.71505803    -0.29200
N673        N  0.40034635  0.79991293  0.74587476     0.15000
C674        C  0.38991264  0.77868673  0.77843275    -0.29200
C675        C  0.37951438  0.63851698  0.72084406    -0.29500
N676        N  0.39084850  0.63111211  0.75393166     0.15500
H677        H  0.38188018  0.62714027  0.69247846     0.18100
C678        C  0.38235026  0.64796974  0.78415059    -0.29500
H679        H  0.38793102  0.64657621  0.81405978     0.18100
H680        H  0.39471013  0.79474076  0.80696290     0.18100
H681        H  0.25628923  0.62870244  0.68650025     0.18200
H682        H  0.39181647  0.77767831  0.68537711     0.18100
C683        C  0.13345339  0.56259078  0.50686329     0.78400
Tb684      Tb  0.46347690  0.51949627  0.53370130     1.80700
O685        O  0.12761082  0.56146586  0.54207347    -0.49600
O686        O  0.08294223  0.99564171  0.58569253    -0.57000
C687        C  0.05920721  0.60679851  0.53583761     0.94300
O688        O  0.44504748  0.56732361  0.53904852    -0.56500
Tb689      Tb  0.05980425  0.51620499  0.53640246     1.78100
O690        O  0.39577708  0.97086256  0.52767349    -0.57000
O691        O  0.50013177  0.94747418  0.53713518    -0.75900
O692        O  0.07488815  0.58685441  0.53737844    -0.75200
O693        O  0.02600391  0.49351468  0.97774154    -0.60400
C694        C  0.46398511  0.92890162  0.53389546     0.93900
O695        O  0.49834483  0.54454702  0.59221426    -0.72400
C696        C  0.38975527  0.47072814  0.56283095     0.77300
C697        C  0.08255544  0.96644865  0.56516022     0.78300
O698        O  0.10275886  0.54164172  0.48557575    -0.57600
O699        O  0.06940033  0.96061854  0.53123115    -0.49600
O700        O  0.47418528  0.49534288  0.97613393    -0.75600
O701        O  0.04855529  0.53982108  0.59381470    -0.59600
C702        C  0.02694215  0.54893336  0.60878779     0.92100
C703        C  0.99687611  0.48785858  0.96116934     0.93300
C704        C  0.43912401  0.56732428  0.00380774     0.77600
O705        O  0.42034623  0.49377048  0.58425974    -0.49000
O706        O  0.44664009  0.04494637  0.98272715    -0.50100
O707        O  0.44833729  0.94877642  0.53142638    -0.63000
O708        O  0.02305530  0.58840235  0.53399638    -0.64100
C709        C  0.13475014  0.57176624  0.76168610     0.78400
Tb710      Tb  0.46431298  0.51513350  0.78579157     1.80700
O711        O  0.12512126  0.57292754  0.79548704    -0.49600
O712        O  0.08125010  0.99080795  0.82685156    -0.57000
C713        C  0.05163199  0.59969281  0.81563282     0.94300
O714        O  0.45332394  0.56880699  0.80148975    -0.56500
Tb715      Tb  0.05846055  0.51757867  0.78351994     1.78100
O716        O  0.39769436  0.96101173  0.77301508    -0.57000
O717        O  0.99945510  0.94776250  0.77005147    -0.75900
O718        O  0.06900434  0.58619383  0.79733331    -0.75200
O719        O  0.03112919  0.51590684  0.72564161    -0.60400
C720        C  0.46679505  0.93256093  0.75350828     0.93900
O721        O  0.47122322  0.47467067  0.82773301    -0.72400
C722        C  0.38778988  0.46227852  0.80673397     0.77300
C723        C  0.08307682  0.96599110  0.80223392     0.78300
O724        O  0.10648341  0.54560098  0.73810423    -0.57600
O725        O  0.07097423  0.96503257  0.76897720    -0.49600
O726        O  0.50900140  0.55554481  0.74088597    -0.75600
O727        O  0.03450196  0.51665407  0.84280238    -0.59600
C728        C  0.99979003  0.48884087  0.85070341     0.92100
C729        C  0.02498687  0.54385078  0.71839349     0.93300
C730        C  0.43905756  0.56650689  0.76888561     0.77600
O731        O  0.41588412  0.48838355  0.83066076    -0.49000
O732        O  0.43852952  0.03994473  0.74415505    -0.50100
O733        O  0.45590570  0.95653278  0.74567335    -0.63000
O734        O  0.01686640  0.57399958  0.82528545    -0.64100
C735        C  0.17865486  0.85629666  0.53139656     0.32000
C736        C  0.17533023  0.84808551  0.60987270     0.32000
C737        C  0.16116628  0.87642644  0.55451813    -0.04200
C738        C  0.15547424  0.80940317  0.54364286    -0.05000
C739        C  0.21767812  0.87815863  0.55423336    -0.04900
C740        C  0.15908763  0.87187535  0.59410311    -0.04200
C741        C  0.15399736  0.80480386  0.58316023    -0.05000
C742        C  0.21606174  0.87347919  0.59383810    -0.04900
C743        C  0.14159009  0.89075265  0.60898069    -0.30200
N744        N  0.13383915  0.90694088  0.57977724     0.16300
C745        C  0.14621842  0.89926698  0.54684582    -0.30500
H746        H  0.14439249  0.90990828  0.51948436     0.18200
C747        C  0.13579022  0.76050055  0.58672463    -0.29200
N748        N  0.12518610  0.73899024  0.55110025     0.15000
C749        C  0.13706265  0.76820092  0.52450307    -0.29200
C750        C  0.25343380  0.89220551  0.60789923    -0.29500
N751        N  0.27713078  0.90880517  0.57842402     0.15500
H752        H  0.26268191  0.89301518  0.63704324     0.18100
C753        C  0.25594021  0.90096597  0.54585898    -0.29500
H754        H  0.26778351  0.91090869  0.51813238     0.18100
H755        H  0.13318140  0.76010076  0.49369792     0.18100
H756        H  0.13471845  0.89222799  0.63854346     0.18200
H757        H  0.13140156  0.74472586  0.61285697     0.18100
C758        C  0.17210062  0.84173303  0.78054724     0.32000
C759        C  0.17627292  0.85153688  0.86021373     0.32000
C760        C  0.15877941  0.86857375  0.79929005    -0.04200
C761        C  0.14800952  0.79850143  0.80085019    -0.05000
C762        C  0.21236664  0.86409538  0.80072465    -0.04900
C763        C  0.16091352  0.87397477  0.83948280    -0.04200
C764        C  0.15025520  0.80400720  0.84120227    -0.05000
C765        C  0.21486954  0.87000696  0.84090047    -0.04900
C766        C  0.14617810  0.89761027  0.84930306    -0.30200
N767        N  0.13448511  0.90510562  0.81656362     0.16300
C768        C  0.14212685  0.88779331  0.78594331    -0.30300
H769        H  0.13518642  0.88820614  0.75619437     0.18200
C770        C  0.12886563  0.76274769  0.85445845    -0.29200
N771        N  0.11399140  0.73239508  0.82370465     0.15000
C772        C  0.12576475  0.75339786  0.79105540    -0.29200
C773        C  0.25358060  0.89225682  0.85231379    -0.29500
N774        N  0.27361781  0.89798721  0.82060233     0.15500
H775        H  0.26654314  0.90407060  0.88126412     0.18100
C776        C  0.24897474  0.88096422  0.78909321    -0.29500
H777        H  0.25727934  0.88116370  0.75986804     0.18100
H778        H  0.11958780  0.73663995  0.76263513     0.18100
H779        H  0.14356999  0.90822145  0.87790796     0.18200
H780        H  0.12514705  0.75535910  0.88419199     0.18100
C781        C  0.20405116  0.85178823  0.96608875    -0.11400
C782        C  0.17898186  0.85729471  0.98717483     0.10800
C783        C  0.14944500  0.85441904  0.96566988    -0.11400
C784        C  0.14882258  0.85313210  0.92531653    -0.11400
C785        C  0.17750249  0.85425588  0.90464128     0.10800
C786        C  0.20323000  0.85013274  0.92577433    -0.11400
H787        H  0.22338250  0.84678187  0.98055738     0.14800
H788        H  0.12546584  0.85085149  0.97963301     0.14800
H789        H  0.12469178  0.84919758  0.91036168     0.14800
H790        H  0.22185290  0.84371492  0.91124253     0.14800
C791        C  0.20062564  0.88215737  0.67917833    -0.11400
C792        C  0.17344314  0.84518722  0.65397310     0.10800
C793        C  0.14281505  0.80804407  0.67096073    -0.11400
C794        C  0.14223140  0.80601012  0.71116179    -0.11400
C795        C  0.17183799  0.84145383  0.73611730     0.10800
C796        C  0.19974310  0.88037910  0.71922352    -0.11400
H797        H  0.22260710  0.91296384  0.66793948     0.14800
H798        H  0.11812810  0.78111361  0.65358117     0.14800
H799        H  0.11735566  0.77754605  0.72238971     0.14800
H800        H  0.22105942  0.91001880  0.73718859     0.14800
C801        C  0.07230335  0.64663426  0.82383953    -0.11300
C802        C  0.09133179  0.68641168  0.82516210    -0.12800
C803        C  0.34791135  0.93814037  0.81607150    -0.11300
C804        C  0.31368898  0.91933117  0.81974281    -0.12800
C805        C  0.09963440  0.94304395  0.81044180    -0.11300
C806        C  0.11559688  0.92545631  0.81432322    -0.12800
C807        C  0.08414035  0.65380003  0.53826355    -0.11300
C808        C  0.10383618  0.69332423  0.54329409    -0.12800
C809        C  0.35129125  0.94800933  0.57608251    -0.11300
C810        C  0.31716692  0.92959078  0.57989619    -0.12800
C811        C  0.11448946  0.92682257  0.58153374    -0.11300
C812        C  0.09846088  0.94425569  0.57768313    -0.12800
C813        C  0.99238954  0.47566862  0.88800142    -0.11300
C814        C  0.99085519  0.47498037  0.92176542    -0.12800
C815        C  0.03301729  0.55960350  0.68195914    -0.11300
C816        C  0.03357083  0.56172891  0.64828386    -0.12800
C817        C  0.40845758  0.60934540  0.75696056    -0.11300
C818        C  0.42324533  0.59046910  0.76128200    -0.12800
C819        C  0.42119965  0.84571868  0.74445630    -0.11300
C820        C  0.44065820  0.88546791  0.74545439    -0.12800
C821        C  0.17445448  0.59543774  0.75192992    -0.11300
C822        C  0.20841386  0.61285354  0.74787972    -0.12800
C823        C  0.42310271  0.58891562  0.99008435    -0.11300
C824        C  0.40717345  0.60645841  0.98630527    -0.12800
C825        C  0.41968284  0.84226538  0.52533390    -0.11300
C826        C  0.43911308  0.88179978  0.53078238    -0.12800
C827        C  0.20605987  0.60370119  0.48965685    -0.11300
C828        C  0.17184131  0.58477946  0.49339943    -0.12800
C829        C  0.32213097  0.65150970  0.89037377    -0.11400
C830        C  0.34929238  0.68909761  0.91505025     0.10800
C831        C  0.37937432  0.72610309  0.89751395    -0.11400
C832        C  0.37935667  0.72739485  0.85727139    -0.11400
C833        C  0.34961617  0.69140505  0.83287000     0.10800
C834        C  0.32237787  0.65258676  0.85026185    -0.11400
H835        H  0.30065994  0.62081023  0.90210105     0.14800
H836        H  0.40411711  0.75349637  0.91446033     0.14800
H837        H  0.40378390  0.75586560  0.84547415     0.14800
H838        H  0.30118055  0.62252452  0.83269750     0.14800
C839        C  0.37393252  0.68011652  0.64364293    -0.11400
C840        C  0.34563422  0.67967763  0.66445031     0.10800
C841        C  0.32077873  0.68539613  0.64358148    -0.11400
C842        C  0.32031314  0.68458052  0.60326413    -0.11400
C843        C  0.34490020  0.67836228  0.58199033     0.10800
C844        C  0.37369250  0.67971053  0.60335157    -0.11400
H845        H  0.39768245  0.68313753  0.65840478     0.14800
H846        H  0.30229012  0.69185059  0.65842206     0.14800
H847        H  0.30138063  0.69027029  0.58889499     0.14800
H848        H  0.39743450  0.68273352  0.58935718     0.14800
C849        C  0.84520114  0.17933377  0.03773668     0.32000
C850        C  0.84795315  0.18699410  0.45920358     0.32000
C851        C  0.80608027  0.15776051  0.01521082    -0.04200
C852        C  0.86864703  0.22618045  0.02525695    -0.05000
C853        C  0.86214640  0.15857970  0.01443028    -0.04900
C854        C  0.80740601  0.16211144  0.47558502    -0.04200
C855        C  0.86993702  0.23054724  0.48568631    -0.05000
C856        C  0.86387478  0.16288587  0.47481759    -0.04900
C857        C  0.76983117  0.14242299  0.46158943    -0.30200
N858        N  0.74629213  0.12565662  0.49116761     0.16300
C859        C  0.76781922  0.13438768  0.02374537    -0.30300
H860        H  0.75621129  0.12439848  0.05155322     0.18200
C861        C  0.88810304  0.27486920  0.48196782    -0.29200
N862        N  0.89873859  0.29657448  0.01752788     0.15000
C863        C  0.88695803  0.26747254  0.04422259    -0.29200
C864        C  0.88058331  0.14326916  0.45954627    -0.29500
N865        N  0.88826821  0.12684011  0.48853643     0.15500
H866        H  0.88696481  0.14144202  0.42984706     0.18100
C867        C  0.87658406  0.13508648  0.02173825    -0.29500
H868        H  0.87849554  0.12433868  0.04899867     0.18100
H869        H  0.89065463  0.27567574  0.07500785     0.18100
H870        H  0.76028195  0.14073449  0.43233997     0.18200
H871        H  0.89220612  0.29047309  0.45579369     0.18100
C872        C  0.84935664  0.19069010  0.28849617     0.32000
C873        C  0.84641090  0.18155708  0.20887696     0.32000
C874        C  0.80903295  0.16551024  0.26785282    -0.04200
C875        C  0.87120634  0.23405595  0.26842122    -0.05000
C876        C  0.86558178  0.16681056  0.27020410    -0.04900
C877        C  0.80713654  0.16016742  0.22765110    -0.04200
C878        C  0.86970427  0.22893231  0.22812926    -0.05000
C879        C  0.86413399  0.16168100  0.23001426    -0.04900
C880        C  0.76862235  0.13858902  0.21572705    -0.30200
N881        N  0.74817665  0.13234535  0.24725649     0.16300
C882        C  0.77235648  0.14866540  0.27903678    -0.30300
H883        H  0.76386824  0.14909303  0.30807811     0.18200
C884        C  0.88817906  0.27007730  0.21505800    -0.29200
N885        N  0.90034674  0.29991463  0.24587432     0.15000
C886        C  0.88991151  0.27868908  0.27843251    -0.29200
C887        C  0.87951948  0.13852231  0.22085068    -0.29500
N888        N  0.89085246  0.13111847  0.25393988     0.15500
H889        H  0.88188683  0.12714532  0.19248617     0.18100
C890        C  0.88235217  0.14797593  0.28415707    -0.29500
H891        H  0.88793123  0.14658279  0.31406658     0.18100
H892        H  0.89470876  0.29474415  0.30696239     0.18100
H893        H  0.75629078  0.12869959  0.18649919     0.18200
H894        H  0.89181895  0.27767911  0.18537720     0.18100
C895        C  0.63345197  0.06258520  0.00685698     0.78400
Tb896      Tb  0.96347556  0.01949257  0.03370131     1.80700
O897        O  0.62761014  0.06145314  0.04206727    -0.49600
O898        O  0.58293784  0.49563642  0.08569242    -0.57000
C899        C  0.55920502  0.10679447  0.03583592     0.94300
O900        O  0.94505046  0.06732393  0.03904631    -0.56500
Tb901      Tb  0.55980410  0.01620083  0.03639851     1.78100
O902        O  0.89577586  0.47084808  0.02767691    -0.57000
O903        O  0.00013131  0.44747004  0.03712481    -0.75900
O904        O  0.57488531  0.08684930  0.03737373    -0.75200
O905        O  0.52600531  0.99351882  0.47774506    -0.60400
C906        C  0.96398461  0.42889744  0.03388757     0.93900
O907        O  0.99834360  0.04453739  0.09221391    -0.72400
C908        C  0.88975486  0.97072942  0.06283360     0.77300
C909        C  0.58255236  0.46644319  0.06516192     0.78300
O910        O  0.60275724  0.04164262  0.98557019    -0.57600
O911        O  0.56940018  0.46061378  0.03123162    -0.49600
O912        O  0.97418241  0.99533838  0.47613564    -0.75600
O913        O  0.54856105  0.03982397  0.09381060    -0.59600
C914        C  0.52694487  0.04893058  0.10878554     0.92100
C915        C  0.49687548  0.98785723  0.46117215     0.93300
C916        C  0.93912739  0.06733077  0.50380965     0.77600
O917        O  0.92034614  0.99378437  0.08426088    -0.49000
O918        O  0.94664806  0.54495758  0.48272826    -0.50100
O919        O  0.94833620  0.44877230  0.03142390    -0.63000
O920        O  0.52305324  0.08839936  0.03399722    -0.64100
C921        C  0.63474936  0.07175892  0.26168374     0.78400
Tb922      Tb  0.96431695  0.01513627  0.28579233     1.80700
O923        O  0.62512120  0.07293260  0.29548278    -0.49600
O924        O  0.58125747  0.49081513  0.32685518    -0.57000
C925        C  0.55163662  0.09969414  0.31562903     0.94300
O926        O  0.95332960  0.06881060  0.30149766    -0.56500
Tb927      Tb  0.55846137  0.01757691  0.28352167     1.78100
O928        O  0.89770001  0.46101248  0.27300701    -0.57000
O929        O  0.49945482  0.44776148  0.27005897    -0.75900
O930        O  0.56900756  0.08619393  0.29732867    -0.75200
O931        O  0.53113297  0.01590741  0.22564185    -0.60400
C932        C  0.96679709  0.43256221  0.25351201     0.93900
O933        O  0.97122576  0.97467645  0.32773906    -0.72400
C934        C  0.88779120  0.96227449  0.30672486     0.77300
C935        C  0.58307895  0.46599225  0.30223994     0.78300
O936        O  0.60648260  0.04558289  0.23810527    -0.57600
O937        O  0.57097046  0.46502640  0.26898391    -0.49600
O938        O  0.00900152  0.05554267  0.24088218    -0.75600
O939        O  0.53450537  0.01665341  0.34280553    -0.59600
C940        C  0.49979324  0.98884228  0.35070737     0.92100
C941        C  0.52498946  0.04385002  0.21839182     0.93300
C942        C  0.93906095  0.06651190  0.26889529     0.77600
O943        O  0.91588235  0.98837778  0.33065524    -0.49000
O944        O  0.93853129  0.53995045  0.24416246    -0.50100
O945        O  0.95591107  0.45653636  0.24567427    -0.63000
O946        O  0.51687224  0.07400141  0.32528475    -0.64100
C947        C  0.67865267  0.35629370  0.03139851     0.32000
C948        C  0.67532921  0.34808192  0.10987381     0.32000
C949        C  0.66116181  0.37642059  0.05452071    -0.04200
C950        C  0.65547489  0.30939984  0.04364434    -0.05000
C951        C  0.71767658  0.37815816  0.05423490    -0.04900
C952        C  0.65908357  0.37186868  0.09410526    -0.04200
C953        C  0.65399858  0.30480024  0.08316157    -0.05000
C954        C  0.71606073  0.37347865  0.09383952    -0.04900
C955        C  0.64158535  0.39074464  0.10898443    -0.30200
N956        N  0.63383367  0.40693335  0.07978202     0.16300
C957        C  0.64621358  0.39926133  0.04685014    -0.30500
H958        H  0.64438877  0.40990521  0.01948985     0.18200
C959        C  0.63579237  0.26049695  0.08672587    -0.29200
N960        N  0.62518836  0.23898674  0.05110135     0.15000
C961        C  0.63706427  0.26819771  0.02450460    -0.29200
C962        C  0.75343314  0.39220724  0.10790087    -0.29500
N963        N  0.77712997  0.40880818  0.07842564     0.15500
H964        H  0.76268149  0.39301739  0.13704461     0.18100
C965        C  0.75593871  0.40096697  0.04586048    -0.29500
H966        H  0.76778153  0.41090886  0.01813308     0.18100
H967        H  0.63318206  0.26009751  0.99369871     0.18100
H968        H  0.63471462  0.39221959  0.13854753     0.18200
H969        H  0.63140324  0.24472216  0.11285834     0.18100
C970        C  0.67210027  0.34173436  0.28054559     0.32000
C971        C  0.67627679  0.35153798  0.36021170     0.32000
C972        C  0.65878177  0.36857677  0.29929046    -0.04200
C973        C  0.64800910  0.29850304  0.30084793    -0.05000
C974        C  0.71236679  0.36409415  0.30072027    -0.04900
C975        C  0.66091857  0.37397816  0.33948309    -0.04200
C976        C  0.65025639  0.30400833  0.34119998    -0.05000
C977        C  0.71487231  0.37000591  0.34089613    -0.04900
C978        C  0.64618417  0.39761402  0.34930590    -0.30200
N979        N  0.63448856  0.40510868  0.31656796     0.16300
C980        C  0.64212773  0.38779557  0.28594611    -0.30300
H981        H  0.63518430  0.38820706  0.25619794     0.18200
C982        C  0.62886768  0.26274836  0.35445518    -0.29200
N983        N  0.61399296  0.23239645  0.32370079     0.15000
C984        C  0.62576523  0.25339994  0.29105209    -0.29200
C985        C  0.75358405  0.39225386  0.35230626    -0.29500
N986        N  0.77361842  0.39798210  0.32059276     0.15500
H987        H  0.76654895  0.40406806  0.38125527     0.18100
C988        C  0.74897327  0.38096014  0.28908544    -0.29500
H989        H  0.75727523  0.38115868  0.25985970     0.18100
H990        H  0.61958911  0.23664253  0.26263159     0.18100
H991        H  0.64357771  0.40822516  0.37791197     0.18200
H992        H  0.62515079  0.25535891  0.38418881     0.18100
C993        C  0.70405602  0.35179333  0.46608741    -0.11400
C994        C  0.67898457  0.35729687  0.48717275     0.10800
C995        C  0.64944581  0.35441653  0.46566699    -0.11400
C996        C  0.64882356  0.35312839  0.42531354    -0.11400
C997        C  0.67750617  0.35425688  0.40463916     0.10800
C998        C  0.70323610  0.35013855  0.42577308    -0.11400
H999        H  0.72338797  0.34678811  0.48055635     0.14800
H1000       H  0.62546604  0.35084758  0.47962995     0.14800
H1001       H  0.62469159  0.34919074  0.41035782     0.14800
H1002       H  0.72186120  0.34372351  0.41124204     0.14800
C1003       C  0.70062280  0.38215720  0.17917765    -0.11400
C1004       C  0.67344244  0.34518484  0.15397339     0.10800
C1005       C  0.64281457  0.30804206  0.17096092    -0.11400
C1006       C  0.64222981  0.30600988  0.21116169    -0.11400
C1007       C  0.67183569  0.34145503  0.23611645     0.10800
C1008       C  0.69973963  0.38038053  0.21922263    -0.11400
H1009       H  0.72260320  0.41296388  0.16793807     0.14800
H1010       H  0.61812795  0.28110977  0.15358079     0.14800
H1011       H  0.61735396  0.27754629  0.22238971     0.14800
H1012       H  0.72105501  0.41002100  0.23718756     0.14800
C1013       C  0.57230789  0.14663575  0.32383371    -0.11300
C1014       C  0.59133514  0.18641307  0.32515685    -0.12800
C1015       C  0.84791136  0.43813353  0.31605798    -0.11300
C1016       C  0.81368913  0.41932446  0.31972988    -0.12800
C1017       C  0.59963719  0.44304631  0.31044909    -0.11300
C1018       C  0.61560005  0.42545911  0.31432996    -0.12800
C1019       C  0.58413921  0.15379616  0.03826301    -0.11300
C1020       C  0.60383666  0.19332045  0.04329468    -0.12800
C1021       C  0.85129085  0.44801401  0.07608522    -0.11300
C1022       C  0.81716641  0.42959561  0.07989822    -0.12800
C1023       C  0.61448424  0.42681552  0.08153961    -0.11300
C1024       C  0.59845634  0.44424943  0.07768799    -0.12800
C1025       C  0.49239269  0.97566732  0.38800469    -0.11300
C1026       C  0.49085577  0.97497738  0.42176849    -0.12800
C1027       C  0.53302086  0.05960207  0.18195702    -0.11300
C1028       C  0.53357467  0.06172706  0.14828159    -0.12800
C1029       C  0.90846126  0.10935163  0.25697203    -0.11300
C1030       C  0.92324867  0.09047506  0.26129500    -0.12800
C1031       C  0.92120074  0.34572039  0.24445579    -0.11300
C1032       C  0.94065958  0.38546966  0.24545563    -0.12800
C1033       C  0.67445328  0.09543008  0.25192682    -0.11300
C1034       C  0.70841293  0.11284758  0.24787709    -0.12800
C1035       C  0.92310905  0.08892521  0.49008613    -0.11300
C1036       C  0.90718239  0.10647085  0.48630631    -0.12800
C1037       C  0.91968599  0.34226151  0.02532320    -0.11300
C1038       C  0.93911359  0.38179568  0.03077159    -0.12800
C1039       C  0.70605889  0.10370232  0.98965227    -0.11300
C1040       C  0.67183964  0.08477665  0.99339259    -0.12800
C1041       C  0.82213335  0.15151508  0.39037714    -0.11400
C1042       C  0.84929311  0.18910440  0.41505331     0.10800
C1043       C  0.87937228  0.22611140  0.39751653    -0.11400
C1044       C  0.87935416  0.22740185  0.35727370    -0.11400
C1045       C  0.84961521  0.19140992  0.33287240     0.10800
C1046       C  0.82237905  0.15259152  0.35026513    -0.11400
H1047       H  0.80066455  0.12081499  0.40210475     0.14800
H1048       H  0.90411376  0.25350688  0.41446276     0.14800
H1049       H  0.90378040  0.25587324  0.34547635     0.14800
H1050       H  0.80118263  0.12252797  0.33270107     0.14800
C1051       C  0.87393194  0.18011423  0.14364244    -0.11400
C1052       C  0.84563529  0.17967802  0.16445077     0.10800
C1053       C  0.82078045  0.18539774  0.14358181    -0.11400
C1054       C  0.82031447  0.18458196  0.10326407    -0.11400
C1055       C  0.84490017  0.17836195  0.08198941     0.10800
C1056       C  0.87369160  0.17970825  0.10335067    -0.11400
H1057       H  0.89768104  0.18313302  0.15840386     0.14800
H1058       H  0.80229247  0.19185279  0.15842258     0.14800
H1059       H  0.80138243  0.19027276  0.08889532     0.14800
H1060       H  0.89743225  0.18272865  0.08935572     0.14800
C1061       C  0.84520219  0.17933606  0.53773859     0.32000
C1062       C  0.84795128  0.18698772  0.95920051     0.32000
C1063       C  0.80608113  0.15775732  0.51521222    -0.04200
C1064       C  0.86864281  0.22618352  0.52526127    -0.05000
C1065       C  0.86215350  0.15858948  0.51443219    -0.04900
C1066       C  0.80740505  0.16211218  0.97558298    -0.04200
C1067       C  0.86994031  0.23054180  0.98568153    -0.05000
C1068       C  0.86386694  0.16287394  0.97481525    -0.04900
C1069       C  0.76983065  0.14242460  0.96158691    -0.30200
N1070       N  0.74629164  0.12566160  0.99116530     0.16300
C1071       C  0.76782010  0.13438151  0.52374689    -0.30300
H1072       H  0.75621262  0.12439189  0.55155489     0.18200
C1073       C  0.88810660  0.27486318  0.98196048    -0.29200
N1074       N  0.89873263  0.29657816  0.51753631     0.15000
C1075       C  0.88695162  0.26747424  0.54422924    -0.29200
C1076       C  0.88057263  0.14325392  0.95954420    -0.29500
N1077       N  0.88825733  0.12682547  0.98853495     0.15500
H1078       H  0.88695406  0.14142608  0.92984536     0.18100
C1079       C  0.87659254  0.13509768  0.52173944    -0.29500
H1080       H  0.87850167  0.12434645  0.54899930     0.18100
H1081       H  0.89064836  0.27567539  0.57501474     0.18100
H1082       H  0.76028129  0.14073241  0.93233638     0.18200
H1083       H  0.89220657  0.29046480  0.95578556     0.18100
C1084       C  0.84935736  0.19068702  0.78849431     0.32000
C1085       C  0.84640960  0.18155598  0.70887569     0.32000
C1086       C  0.80903338  0.16550988  0.76785214    -0.04200
C1087       C  0.87120821  0.23405378  0.76842054    -0.05000
C1088       C  0.86558025  0.16680582  0.77020028    -0.04900
C1089       C  0.80713586  0.16016777  0.72765052    -0.04200
C1090       C  0.86970505  0.22893099  0.72812859    -0.05000
C1091       C  0.86413097  0.16167707  0.73001055    -0.04900
C1092       C  0.76862161  0.13859132  0.71572760    -0.30200
N1093       N  0.74817713  0.13234879  0.74725783     0.16300
C1094       C  0.77235772  0.14866737  0.77903740    -0.30300
H1095       H  0.76387064  0.14909570  0.80807899     0.18200
C1096       C  0.88817831  0.27007607  0.71505803    -0.29200
N1097       N  0.90034646  0.29991293  0.74587475     0.15000
C1098       C  0.88991280  0.27868678  0.77843274    -0.29200
C1099       C  0.87951448  0.13851704  0.72084410    -0.29500
N1100       N  0.89084848  0.13111208  0.75393169     0.15500
H1101       H  0.88188037  0.12714044  0.69247852     0.18100
C1102       C  0.88235030  0.14796970  0.78415072    -0.29500
H1103       H  0.88793095  0.14657609  0.81405953     0.18100
H1104       H  0.89471033  0.29474087  0.80696292     0.18100
H1105       H  0.75628927  0.12870250  0.68650032     0.18200
H1106       H  0.89181637  0.27767821  0.68537709     0.18100
C1107       C  0.63345343  0.06259087  0.50686329     0.78400
Tb1108     Tb  0.96347702  0.01949635  0.53370126     1.80700
O1109       O  0.62761087  0.06146601  0.54207348    -0.49600
O1110       O  0.58294223  0.49564171  0.58569245    -0.57000
C1111       C  0.55920723  0.10679850  0.53583767     0.94300
O1112       O  0.94504770  0.06732382  0.53904846    -0.56500
Tb1113     Tb  0.55980427  0.01620507  0.53640247     1.78100
O1114       O  0.89577699  0.47086243  0.52767350    -0.57000
O1115       O  0.00013173  0.44747417  0.53713517    -0.75900
O1116       O  0.57488813  0.08685437  0.53737840    -0.75200
O1117       O  0.52600377  0.99351446  0.97774158    -0.60400
C1118       C  0.96398507  0.42890159  0.53389547     0.93900
O1119       O  0.99834471  0.04454688  0.59221427    -0.72400
C1120       C  0.88975531  0.97072814  0.56283079     0.77300
C1121       C  0.58255542  0.46644860  0.56516017     0.78300
O1122       O  0.60275890  0.04164188  0.48557576    -0.57600
O1123       O  0.56940033  0.46061847  0.53123110    -0.49600
O1124       O  0.97418527  0.99534270  0.97613392    -0.75600
O1125       O  0.54855545  0.03982127  0.59381474    -0.59600
C1126       C  0.52694219  0.04893337  0.60878781     0.92100
C1127       C  0.49687605  0.98785852  0.96116934     0.93300
C1128       C  0.93912391  0.06732420  0.00380774     0.77600
O1129       O  0.92034627  0.99377039  0.58425956    -0.49000
O1130       O  0.94663993  0.54494620  0.98272706    -0.50100
O1131       O  0.94833721  0.44877634  0.53142639    -0.63000
O1132       O  0.52305535  0.08840242  0.53399661    -0.64100
C1133       C  0.63475015  0.07176610  0.76168609     0.78400
Tb1134     Tb  0.96431295  0.01513352  0.78579160     1.80700
O1135       O  0.62512132  0.07292736  0.79548706    -0.49600
O1136       O  0.58125002  0.49080785  0.82685154    -0.57000
C1137       C  0.55163203  0.09969279  0.81563279     0.94300
O1138       O  0.95332399  0.06880708  0.80148974    -0.56500
Tb1139     Tb  0.55846059  0.01757860  0.78351994     1.78100
O1140       O  0.89769430  0.46101166  0.77301508    -0.57000
O1141       O  0.49945512  0.44776261  0.77005144    -0.75900
O1142       O  0.56900435  0.08619377  0.79733326    -0.75200
O1143       O  0.53112925  0.01590688  0.72564163    -0.60400
C1144       C  0.96679507  0.43256097  0.75350835     0.93900
O1145       O  0.97122322  0.97467076  0.82773307    -0.72400
C1146       C  0.88778987  0.96227861  0.80673404     0.77300
C1147       C  0.58307676  0.46599101  0.80223391     0.78300
O1148       O  0.60648339  0.04560090  0.73810421    -0.57600
O1149       O  0.57097416  0.46503250  0.76897721    -0.49600
O1150       O  0.00900148  0.05554484  0.74088606    -0.75600
O1151       O  0.53450199  0.01665392  0.84280234    -0.59600
C1152       C  0.49979003  0.98884097  0.85070343     0.92100
C1153       C  0.52498690  0.04385081  0.71839350     0.93300
C1154       C  0.93905762  0.06650699  0.76888561     0.77600
O1155       O  0.91588410  0.98838362  0.83066086    -0.49000
O1156       O  0.93852957  0.53994469  0.74415502    -0.50100
O1157       O  0.95590568  0.45653278  0.74567350    -0.63000
O1158       O  0.51686646  0.07399954  0.82528548    -0.64100
C1159       C  0.67865487  0.35629665  0.53139657     0.32000
C1160       C  0.67533026  0.34808548  0.60987269     0.32000
C1161       C  0.66116638  0.37642653  0.55451815    -0.04200
C1162       C  0.65547421  0.30940312  0.54364288    -0.05000
C1163       C  0.71767811  0.37815851  0.55423334    -0.04900
C1164       C  0.65908764  0.37187533  0.59410311    -0.04200
C1165       C  0.65399741  0.30480382  0.58316026    -0.05000
C1166       C  0.71606173  0.37347911  0.59383809    -0.04900
C1167       C  0.64159000  0.39075253  0.60898069    -0.30200
N1168       N  0.63383905  0.40694077  0.57977724     0.16300
C1169       C  0.64621847  0.39926706  0.54684583    -0.30500
H1170       H  0.64439252  0.40990831  0.51948447     0.18200
C1171       C  0.63579017  0.26050050  0.58672468    -0.29200
N1172       N  0.62518597  0.23899016  0.55110033     0.15000
C1173       C  0.63706254  0.26820082  0.52450311    -0.29200
C1174       C  0.75343379  0.39220549  0.60789923    -0.29500
N1175       N  0.77713077  0.40880528  0.57842404     0.15500
H1176       H  0.76268190  0.39301514  0.63704322     0.18100
C1177       C  0.75594018  0.40096592  0.54585897    -0.29500
H1178       H  0.76778350  0.41090867  0.51813236     0.18100
H1179       H  0.63318127  0.26010063  0.49369808     0.18100
H1180       H  0.63471840  0.39222789  0.63854339     0.18200
H1181       H  0.63140146  0.24472579  0.61285711     0.18100
C1182       C  0.67210062  0.34173308  0.78054724     0.32000
C1183       C  0.67627292  0.35153687  0.86021375     0.32000
C1184       C  0.65877940  0.36857378  0.79929005    -0.04200
C1185       C  0.64800948  0.29850146  0.80085017    -0.05000
C1186       C  0.71236662  0.36409538  0.80072471    -0.04900
C1187       C  0.66091353  0.37397478  0.83948280    -0.04200
C1188       C  0.65025520  0.30400722  0.84120227    -0.05000
C1189       C  0.71486950  0.37000693  0.84090053    -0.04900
C1190       C  0.64617811  0.39761020  0.84930304    -0.30200
N1191       N  0.63448505  0.40510556  0.81656372     0.16300
C1192       C  0.64212684  0.38779337  0.78594330    -0.30300
H1193       H  0.63518652  0.38820633  0.75619458     0.18200
C1194       C  0.62886575  0.26274774  0.85445843    -0.29200
N1195       N  0.61399139  0.23239511  0.82370465     0.15000
C1196       C  0.62576471  0.25339791  0.79105538    -0.29200
C1197       C  0.75358056  0.39225681  0.85231395    -0.29500
N1198       N  0.77361778  0.39798725  0.82060244     0.15500
H1199       H  0.76654302  0.40407045  0.88126410     0.18100
C1200       C  0.74897472  0.38096421  0.78909332    -0.29500
H1201       H  0.75727934  0.38116366  0.75986821     0.18100
H1202       H  0.61958773  0.23663995  0.76263510     0.18100
H1203       H  0.64356999  0.40822146  0.87790825     0.18200
H1204       H  0.62514729  0.25535911  0.88419206     0.18100
C1205       C  0.70405113  0.35178821  0.96608881    -0.11400
C1206       C  0.67898186  0.35729471  0.98717488     0.10800
C1207       C  0.64944500  0.35441901  0.96566991    -0.11400
C1208       C  0.64882267  0.35313218  0.92531659    -0.11400
C1209       C  0.67750250  0.35425588  0.90464130     0.10800
C1210       C  0.70323003  0.35013280  0.92577442    -0.11400
H1211       H  0.72338244  0.34678172  0.98055749     0.14800
H1212       H  0.62546588  0.35085142  0.97963301     0.14800
H1213       H  0.62469167  0.34919766  0.91036160     0.14800
H1214       H  0.72185304  0.34371495  0.91124256     0.14800
C1215       C  0.70062572  0.38215754  0.67917830    -0.11400
C1216       C  0.67344325  0.34518725  0.65397310     0.10800
C1217       C  0.64281514  0.30804424  0.67096076    -0.11400
C1218       C  0.64223141  0.30601026  0.71116180    -0.11400
C1219       C  0.67183802  0.34145399  0.73611731     0.10800
C1220       C  0.69974312  0.38037927  0.71922353    -0.11400
H1221       H  0.72260697  0.41296377  0.66793951     0.14800
H1222       H  0.61812803  0.28111361  0.65358109     0.14800
H1223       H  0.61735577  0.27754629  0.72238968     0.14800
H1224       H  0.72105944  0.41001899  0.73718860     0.14800
C1225       C  0.57230343  0.14663428  0.82383951    -0.11300
C1226       C  0.59133182  0.18641174  0.82516210    -0.12800
C1227       C  0.84791129  0.43814040  0.81607150    -0.11300
C1228       C  0.81368892  0.41933118  0.81974289    -0.12800
C1229       C  0.59963429  0.44304383  0.81044185    -0.11300
C1230       C  0.61559677  0.42545619  0.81432338    -0.12800
C1231       C  0.58414042  0.15379998  0.53826356    -0.11300
C1232       C  0.60383614  0.19332416  0.54329414    -0.12800
C1233       C  0.85129120  0.44800930  0.57608253    -0.11300
C1234       C  0.81716689  0.42959087  0.57989621    -0.12800
C1235       C  0.61448932  0.42682243  0.58153375    -0.11300
C1236       C  0.59846078  0.44425559  0.57768315    -0.12800
C1237       C  0.49238959  0.97566874  0.88800142    -0.11300
C1238       C  0.49085522  0.97498044  0.92176541    -0.12800
C1239       C  0.53301722  0.05960346  0.68195912    -0.11300
C1240       C  0.53357083  0.06172896  0.64828385    -0.12800
C1241       C  0.90845764  0.10934546  0.75696057    -0.11300
C1242       C  0.92324542  0.09046922  0.76128200    -0.12800
C1243       C  0.92119966  0.34571871  0.74445627    -0.11300
C1244       C  0.94065820  0.38546792  0.74545441    -0.12800
C1245       C  0.67445446  0.09543769  0.75192986    -0.11300
C1246       C  0.70841387  0.11285366  0.74787970    -0.12800
C1247       C  0.92310270  0.08891565  0.99008436    -0.11300
C1248       C  0.90717342  0.10645839  0.98630525    -0.12800
C1249       C  0.91968280  0.34226538  0.52533389    -0.11300
C1250       C  0.93911307  0.38179978  0.53078240    -0.12800
C1251       C  0.70605986  0.10370116  0.48965680    -0.11300
C1252       C  0.67184131  0.08477941  0.49339942    -0.12800
C1253       C  0.82213095  0.15150979  0.89037381    -0.11400
C1254       C  0.84929237  0.18909771  0.91505025     0.10800
C1255       C  0.87937430  0.22610318  0.89751392    -0.11400
C1256       C  0.87935662  0.22739483  0.85727135    -0.11400
C1257       C  0.84961614  0.19140499  0.83287000     0.10800
C1258       C  0.82237782  0.15258671  0.85026187    -0.11400
H1259       H  0.80065994  0.12081031  0.90210115     0.14800
H1260       H  0.90411710  0.25349649  0.91446024     0.14800
H1261       H  0.90378385  0.25586554  0.84547405     0.14800
H1262       H  0.80118057  0.12252449  0.83269760     0.14800
C1263       C  0.87393243  0.18011644  0.64364292    -0.11400
C1264       C  0.84563414  0.17967754  0.66445031     0.10800
C1265       C  0.82077861  0.18539604  0.64358150    -0.11400
C1266       C  0.82031300  0.18458038  0.60326413    -0.11400
C1267       C  0.84490011  0.17836221  0.58199032     0.10800
C1268       C  0.87369249  0.17971060  0.60335156    -0.11400
H1269       H  0.89768235  0.18313743  0.65840475     0.14800
H1270       H  0.80229015  0.19185055  0.65842200     0.14800
H1271       H  0.80138049  0.19027015  0.58889499     0.14800
H1272       H  0.89743452  0.18273371  0.58935720     0.14800
C1273       C  0.84520120  0.67933383  0.03773668     0.32000
C1274       C  0.84795315  0.68699411  0.45920355     0.32000
C1275       C  0.80608030  0.65776058  0.01521086    -0.04200
C1276       C  0.86864707  0.72618052  0.02525691    -0.05000
C1277       C  0.86214643  0.65857970  0.01443027    -0.04900
C1278       C  0.80740601  0.66211141  0.47558498    -0.04200
C1279       C  0.86993695  0.73054726  0.48568626    -0.05000
C1280       C  0.86387488  0.66288599  0.47481760    -0.04900
C1281       C  0.76983118  0.64242289  0.46158944    -0.30200
N1282       N  0.74629216  0.62565654  0.49116760     0.16300
C1283       C  0.76781922  0.63438761  0.02374539    -0.30300
H1284       H  0.75621131  0.62439847  0.05155309     0.18200
C1285       C  0.88810300  0.77486923  0.48196778    -0.29200
N1286       N  0.89873858  0.79657454  0.01752784     0.15000
C1287       C  0.88695798  0.76747260  0.04422255    -0.29200
C1288       C  0.88058332  0.64326919  0.45954628    -0.29500
N1289       N  0.88826805  0.62683994  0.48853639     0.15500
H1290       H  0.88696487  0.64144210  0.42984703     0.18100
C1291       C  0.87658414  0.63508651  0.02173818    -0.29500
H1292       H  0.87849573  0.62433874  0.04899865     0.18100
H1293       H  0.89065454  0.77567582  0.07500777     0.18100
H1294       H  0.76028188  0.64073434  0.43233980     0.18200
H1295       H  0.89220607  0.79047310  0.45579366     0.18100
C1296       C  0.84935663  0.69069011  0.28849618     0.32000
C1297       C  0.84641096  0.68155714  0.20887698     0.32000
C1298       C  0.80903297  0.66551028  0.26785281    -0.04200
C1299       C  0.87120637  0.73405600  0.26842124    -0.05000
C1300       C  0.86558169  0.66681050  0.27020412    -0.04900
C1301       C  0.80713658  0.66016744  0.22765110    -0.04200
C1302       C  0.86970428  0.72893235  0.22812928    -0.05000
C1303       C  0.86413400  0.66168104  0.23001429    -0.04900
C1304       C  0.76862239  0.63858903  0.21572705    -0.30200
N1305       N  0.74817664  0.63234527  0.24725648     0.16300
C1306       C  0.77235649  0.64866540  0.27903677    -0.30300
H1307       H  0.76386826  0.64909313  0.30807811     0.18200
C1308       C  0.88817896  0.77007730  0.21505801    -0.29200
N1309       N  0.90034661  0.79991464  0.24587430     0.15000
C1310       C  0.88991148  0.77868915  0.27843252    -0.29200
C1311       C  0.87951947  0.63852235  0.22085068    -0.29500
N1312       N  0.89085234  0.63111838  0.25393987     0.15500
H1313       H  0.88188684  0.62714537  0.19248618     0.18100
C1314       C  0.88235198  0.64797575  0.28415708    -0.29500
H1315       H  0.88793099  0.64658253  0.31406657     0.18100
H1316       H  0.89470877  0.79474425  0.30696235     0.18100
H1317       H  0.75629086  0.62869967  0.18649917     0.18200
H1318       H  0.89181888  0.77767909  0.18537711     0.18100
C1319       C  0.63345198  0.56258522  0.00685697     0.78400
Tb1320     Tb  0.96347552  0.51949262  0.03370134     1.80700
O1321       O  0.62761015  0.56145308  0.04206726    -0.49600
O1322       O  0.58293776  0.99563635  0.08569244    -0.57000
C1323       C  0.55920503  0.60679453  0.03583585     0.94300
O1324       O  0.94505059  0.56732413  0.03904632    -0.56500
Tb1325     Tb  0.55980416  0.51620089  0.03639848     1.78100
O1326       O  0.89577594  0.97084794  0.02767693    -0.57000
O1327       O  0.00013134  0.94747007  0.03712483    -0.75900
O1328       O  0.57488539  0.58684943  0.03737377    -0.75200
O1329       O  0.52600548  0.49351893  0.47774502    -0.60400
C1330       C  0.96398467  0.92889747  0.03388757     0.93900
O1331       O  0.99834358  0.54453741  0.09221398    -0.72400
C1332       C  0.88975475  0.47072938  0.06283358     0.77300
C1333       C  0.58255227  0.96644313  0.06516191     0.78300
O1334       O  0.60275726  0.54164277  0.98557015    -0.57600
O1335       O  0.56940010  0.96061377  0.03123161    -0.49600
O1336       O  0.97418219  0.49533819  0.47613564    -0.75600
O1337       O  0.54856119  0.53982403  0.09381058    -0.59600
C1338       C  0.52694496  0.54893054  0.10878554     0.92100
C1339       C  0.49687555  0.48785717  0.46117216     0.93300
C1340       C  0.93912741  0.56733082  0.50380965     0.77600
O1341       O  0.92034601  0.49378426  0.08426089    -0.49000
O1342       O  0.94664790  0.04495741  0.48272825    -0.50100
O1343       O  0.94833624  0.94877229  0.03142389    -0.63000
O1344       O  0.52305325  0.58839934  0.03399700    -0.64100
C1345       C  0.63474929  0.57175892  0.26168374     0.78400
Tb1346     Tb  0.96431698  0.51513624  0.28579234     1.80700
O1347       O  0.62512114  0.57293268  0.29548278    -0.49600
O1348       O  0.58125743  0.99081502  0.32685522    -0.57000
C1349       C  0.55163662  0.59969418  0.31562905     0.94300
O1350       O  0.95332937  0.56881040  0.30149766    -0.56500
Tb1351     Tb  0.55846133  0.51757699  0.28352167     1.78100
O1352       O  0.89770003  0.96101248  0.27300703    -0.57000
O1353       O  0.49945485  0.94776138  0.27005897    -0.75900
O1354       O  0.56900754  0.58619400  0.29732865    -0.75200
O1355       O  0.53113310  0.51590754  0.22564182    -0.60400
C1356       C  0.96679711  0.93256216  0.25351201     0.93900
O1357       O  0.97122586  0.47467640  0.32773904    -0.72400
C1358       C  0.88779121  0.46227445  0.30672487     0.77300
C1359       C  0.58307902  0.96599228  0.30223993     0.78300
O1360       O  0.60648252  0.54558295  0.23810526    -0.57600
O1361       O  0.57097062  0.96502649  0.26898388    -0.49600
O1362       O  0.00900167  0.55554275  0.24088222    -0.75600
O1363       O  0.53450533  0.51665340  0.34280552    -0.59600
C1364       C  0.49979319  0.48884230  0.35070739     0.92100
C1365       C  0.52498953  0.54385011  0.21839183     0.93300
C1366       C  0.93906083  0.56651180  0.26889526     0.77600
O1367       O  0.91588240  0.48837766  0.33065525    -0.49000
O1368       O  0.93853130  0.03995047  0.24416248    -0.50100
O1369       O  0.95591107  0.95653632  0.24567430    -0.63000
O1370       O  0.51687220  0.57400149  0.32528469    -0.64100
C1371       C  0.67865265  0.85629369  0.03139851     0.32000
C1372       C  0.67532916  0.84808185  0.10987380     0.32000
C1373       C  0.66116170  0.87642048  0.05452072    -0.04200
C1374       C  0.65547492  0.80939985  0.04364433    -0.05000
C1375       C  0.71767655  0.87815814  0.05423491    -0.04900
C1376       C  0.65908342  0.87186853  0.09410526    -0.04200
C1377       C  0.65399857  0.80480021  0.08316155    -0.05000
C1378       C  0.71606069  0.87347858  0.09383951    -0.04900
C1379       C  0.64158521  0.89074455  0.10898443    -0.30200
N1380       N  0.63383363  0.90693336  0.07978201     0.16300
C1381       C  0.64621351  0.89926125  0.04685016    -0.30500
H1382       H  0.64438878  0.90990523  0.01948979     0.18200
C1383       C  0.63579231  0.76049692  0.08672586    -0.29200
N1384       N  0.62518845  0.73898679  0.05110130     0.15000
C1385       C  0.63706438  0.76819778  0.02450456    -0.29200
C1386       C  0.75343311  0.89220717  0.10790084    -0.29500
N1387       N  0.77713000  0.90880827  0.07842566     0.15500
H1388       H  0.76268144  0.89301725  0.13704466     0.18100
C1389       C  0.75593870  0.90096697  0.04586050    -0.29500
H1390       H  0.76778155  0.91090886  0.01813306     0.18100
H1391       H  0.63318217  0.76009761  0.99369865     0.18100
H1392       H  0.63471453  0.89221957  0.13854745     0.18200
H1393       H  0.63140304  0.74472210  0.11285818     0.18100
C1394       C  0.67210027  0.84173442  0.28054559     0.32000
C1395       C  0.67627681  0.85153802  0.36021169     0.32000
C1396       C  0.65878176  0.86857683  0.29929046    -0.04200
C1397       C  0.64800918  0.79850305  0.30084794    -0.05000
C1398       C  0.71236681  0.86409426  0.30072022    -0.04900
C1399       C  0.66091860  0.87397824  0.33948309    -0.04200
C1400       C  0.65025643  0.80400832  0.34119999    -0.05000
C1401       C  0.71487233  0.87000595  0.34089610    -0.04900
C1402       C  0.64618421  0.89761414  0.34930591    -0.30200
N1403       N  0.63448865  0.90510882  0.31656797     0.16300
C1404       C  0.64212772  0.88779565  0.28594611    -0.30300
H1405       H  0.63518421  0.88820706  0.25619798     0.18200
C1406       C  0.62886761  0.76274830  0.35445518    -0.29200
N1407       N  0.61399299  0.73239642  0.32370078     0.15000
C1408       C  0.62576532  0.75339992  0.29105209    -0.29200
C1409       C  0.75358402  0.89225377  0.35230616    -0.29500
N1410       N  0.77361842  0.89798218  0.32059272     0.15500
H1411       H  0.76654906  0.90406798  0.38125552     0.18100
C1412       C  0.74897328  0.88096023  0.28908537    -0.29500
H1413       H  0.75727524  0.88115876  0.25985965     0.18100
H1414       H  0.61958915  0.73664249  0.26263159     0.18100
H1415       H  0.64357769  0.90822518  0.37791197     0.18200
H1416       H  0.62515052  0.75535876  0.38418874     0.18100
C1417       C  0.70405595  0.85179314  0.46608742    -0.11400
C1418       C  0.67898453  0.85729679  0.48717275     0.10800
C1419       C  0.64944588  0.85441663  0.46566699    -0.11400
C1420       C  0.64882363  0.85312851  0.42531354    -0.11400
C1421       C  0.67750622  0.85425696  0.40463916     0.10800
C1422       C  0.70323603  0.85013844  0.42577305    -0.11400
H1423       H  0.72338775  0.84678795  0.48055624     0.14800
H1424       H  0.62546608  0.85084771  0.47962993     0.14800
H1425       H  0.62469165  0.84919088  0.41035782     0.14800
H1426       H  0.72186110  0.84372336  0.41124200     0.14800
C1427       C  0.70062290  0.88215722  0.17917759    -0.11400
C1428       C  0.67344248  0.84518476  0.15397338     0.10800
C1429       C  0.64281463  0.80804195  0.17096091    -0.11400
C1430       C  0.64222990  0.80600985  0.21116171    -0.11400
C1431       C  0.67183568  0.84145509  0.23611645     0.10800
C1432       C  0.69973972  0.88038059  0.21922263    -0.11400
H1433       H  0.72260307  0.91296362  0.16793812     0.14800
H1434       H  0.61812811  0.78110978  0.15358092     0.14800
H1435       H  0.61735407  0.77754625  0.22238971     0.14800
H1436       H  0.72105501  0.91002092  0.23718741     0.14800
C1437       C  0.57230791  0.64663576  0.32383375    -0.11300
C1438       C  0.59133511  0.68641305  0.32515684    -0.12800
C1439       C  0.84791136  0.93813363  0.31605793    -0.11300
C1440       C  0.81368914  0.91932461  0.31972984    -0.12800
C1441       C  0.59963729  0.94304640  0.31044907    -0.11300
C1442       C  0.61560012  0.92545923  0.31432997    -0.12800
C1443       C  0.58413911  0.65379621  0.03826299    -0.11300
C1444       C  0.60383661  0.69332050  0.04329465    -0.12800
C1445       C  0.85129093  0.94801410  0.07608525    -0.11300
C1446       C  0.81716647  0.92959570  0.07989822    -0.12800
C1447       C  0.61448426  0.92681559  0.08153958    -0.11300
C1448       C  0.59845629  0.94424943  0.07768794    -0.12800
C1449       C  0.49239267  0.47566741  0.38800471    -0.11300
C1450       C  0.49085582  0.47497732  0.42176850    -0.12800
C1451       C  0.53302097  0.55960216  0.18195705    -0.11300
C1452       C  0.53357473  0.56172695  0.14828159    -0.12800
C1453       C  0.90846113  0.60935153  0.25697196    -0.11300
C1454       C  0.92324860  0.59047501  0.26129490    -0.12800
C1455       C  0.92120068  0.84572040  0.24445576    -0.11300
C1456       C  0.94065961  0.88546964  0.24545560    -0.12800
C1457       C  0.67445324  0.59543005  0.25192681    -0.11300
C1458       C  0.70841291  0.61284760  0.24787708    -0.12800
C1459       C  0.92310911  0.58892529  0.49008611    -0.11300
C1460       C  0.90718228  0.60647075  0.48630628    -0.12800
C1461       C  0.91968610  0.84226158  0.02532318    -0.11300
C1462       C  0.93911372  0.88179575  0.03077159    -0.12800
C1463       C  0.70605891  0.60370229  0.98965225    -0.11300
C1464       C  0.67183965  0.58477664  0.99339260    -0.12800
C1465       C  0.82213335  0.65151500  0.39037712    -0.11400
C1466       C  0.84929307  0.68910434  0.41505327     0.10800
C1467       C  0.87937226  0.72611130  0.39751649    -0.11400
C1468       C  0.87935410  0.72740178  0.35727369    -0.11400
C1469       C  0.84961516  0.69140986  0.33287239     0.10800
C1470       C  0.82237895  0.65259138  0.35026509    -0.11400
H1471       H  0.80066456  0.62081484  0.40210477     0.14800
H1472       H  0.90411378  0.75350683  0.41446278     0.14800
H1473       H  0.90378033  0.75587327  0.34547634     0.14800
H1474       H  0.80118268  0.62252810  0.33270119     0.14800
C1475       C  0.87393197  0.68011414  0.14364241    -0.11400
C1476       C  0.84563539  0.67967808  0.16445078     0.10800
C1477       C  0.82078061  0.68539785  0.14358180    -0.11400
C1478       C  0.82031463  0.68458209  0.10326410    -0.11400
C1479       C  0.84490028  0.67836208  0.08198940     0.10800
C1480       C  0.87369167  0.67970830  0.10335064    -0.11400
H1481       H  0.89768100  0.68313278  0.15840377     0.14800
H1482       H  0.80229253  0.69185290  0.15842268     0.14800
H1483       H  0.80138244  0.69027286  0.08889526     0.14800
H1484       H  0.89743232  0.68272867  0.08935566     0.14800
C1485       C  0.84520222  0.67933611  0.53773857     0.32000
C1486       C  0.84795126  0.68698771  0.95920052     0.32000
C1487       C  0.80608116  0.65775737  0.51521219    -0.04200
C1488       C  0.86864273  0.72618353  0.52526122    -0.05000
C1489       C  0.86215356  0.65858956  0.51443218    -0.04900
C1490       C  0.80740506  0.66211223  0.97558302    -0.04200
C1491       C  0.86994033  0.73054184  0.98568149    -0.05000
C1492       C  0.86386693  0.66287392  0.97481524    -0.04900
C1493       C  0.76983068  0.64242460  0.96158691    -0.30200
N1494       N  0.74629163  0.62566148  0.99116527     0.16300
C1495       C  0.76782015  0.63438161  0.52374691    -0.30300
H1496       H  0.75621273  0.62439218  0.55155494     0.18200
C1497       C  0.88810668  0.77486325  0.98196044    -0.29200
N1498       N  0.89873263  0.79657815  0.51753628     0.15000
C1499       C  0.88695154  0.76747422  0.54422921    -0.29200
C1500       C  0.88057262  0.64325394  0.95954417    -0.29500
N1501       N  0.88825729  0.62682539  0.98853485     0.15500
H1502       H  0.88695408  0.64142619  0.92984519     0.18100
C1503       C  0.87659245  0.63509759  0.52173942    -0.29500
H1504       H  0.87850153  0.62434632  0.54899925     0.18100
H1505       H  0.89064822  0.77567531  0.57501467     0.18100
H1506       H  0.76028136  0.64073239  0.93233638     0.18200
H1507       H  0.89220682  0.79046492  0.95578550     0.18100
C1508       C  0.84935735  0.69068703  0.78849428     0.32000
C1509       C  0.84640961  0.68155599  0.70887567     0.32000
C1510       C  0.80903338  0.66550989  0.76785214    -0.04200
C1511       C  0.87120812  0.73405377  0.76842050    -0.05000
C1512       C  0.86558022  0.66680581  0.77020024    -0.04900
C1513       C  0.80713584  0.66016774  0.72765050    -0.04200
C1514       C  0.86970496  0.72893099  0.72812856    -0.05000
C1515       C  0.86413096  0.66167707  0.73001051    -0.04900
C1516       C  0.76862161  0.63859128  0.71572761    -0.30200
N1517       N  0.74817709  0.63234870  0.74725784     0.16300
C1518       C  0.77235775  0.64866738  0.77903739    -0.30300
H1519       H  0.76387067  0.64909574  0.80807909     0.18200
C1520       C  0.88817821  0.77007608  0.71505803    -0.29200
N1521       N  0.90034638  0.79991294  0.74587477     0.15000
C1522       C  0.88991268  0.77868674  0.77843275    -0.29200
C1523       C  0.87951443  0.63851699  0.72084406    -0.29500
N1524       N  0.89084856  0.63111212  0.75393166     0.15500
H1525       H  0.88188022  0.62714027  0.69247845     0.18100
C1526       C  0.88235032  0.64796975  0.78415058    -0.29500
H1527       H  0.88793107  0.64657621  0.81405978     0.18100
H1528       H  0.89471027  0.79474080  0.80696291     0.18100
H1529       H  0.75628922  0.62870241  0.68650026     0.18200
H1530       H  0.89181635  0.77767830  0.68537711     0.18100
C1531       C  0.63345341  0.56259078  0.50686330     0.78400
Tb1532     Tb  0.96347691  0.51949628  0.53370130     1.80700
O1533       O  0.62761082  0.56146594  0.54207347    -0.49600
O1534       O  0.58294209  0.99564165  0.58569248    -0.57000
C1535       C  0.55920727  0.60679851  0.53583768     0.94300
O1536       O  0.94504747  0.56732363  0.53904847    -0.56500
Tb1537     Tb  0.55980428  0.51620498  0.53640246     1.78100
O1538       O  0.89577703  0.97086262  0.52767341    -0.57000
O1539       O  0.00013181  0.94747421  0.53713518    -0.75900
O1540       O  0.57488822  0.58685441  0.53737840    -0.75200
O1541       O  0.52600380  0.49351463  0.97774158    -0.60400
C1542       C  0.96398514  0.92890163  0.53389546     0.93900
O1543       O  0.99834482  0.54454703  0.59221425    -0.72400
C1544       C  0.88975526  0.47072812  0.56283085     0.77300
C1545       C  0.58255544  0.96644869  0.56516015     0.78300
O1546       O  0.60275890  0.54164168  0.48557573    -0.57600
O1547       O  0.56940038  0.96061861  0.53123108    -0.49600
O1548       O  0.97418523  0.49534264  0.97613399    -0.75600
O1549       O  0.54855531  0.53982108  0.59381468    -0.59600
C1550       C  0.52694217  0.54893336  0.60878779     0.92100
C1551       C  0.49687607  0.48785865  0.96116934     0.93300
C1552       C  0.93912394  0.56732429  0.00380775     0.77600
O1553       O  0.92034619  0.49377053  0.58425966    -0.49000
O1554       O  0.94663995  0.04494616  0.98272707    -0.50100
O1555       O  0.94833732  0.94877643  0.53142637    -0.63000
O1556       O  0.52305536  0.58840236  0.53399661    -0.64100
C1557       C  0.63475012  0.57176624  0.76168608     0.78400
Tb1558     Tb  0.96431293  0.51513350  0.78579161     1.80700
O1559       O  0.62512128  0.57292749  0.79548705    -0.49600
O1560       O  0.58125015  0.99080795  0.82685155    -0.57000
C1561       C  0.55163199  0.59969282  0.81563280     0.94300
O1562       O  0.95332398  0.56880702  0.80148975    -0.56500
Tb1563     Tb  0.55846057  0.51757868  0.78351995     1.78100
O1564       O  0.89769431  0.96101177  0.77301508    -0.57000
O1565       O  0.49945507  0.94776255  0.77005148    -0.75900
O1566       O  0.56900436  0.58619383  0.79733332    -0.75200
O1567       O  0.53112922  0.51590695  0.72564165    -0.60400
C1568       C  0.96679507  0.93256091  0.75350834     0.93900
O1569       O  0.97122322  0.47467066  0.82773299    -0.72400
C1570       C  0.88778985  0.46227852  0.80673405     0.77300
C1571       C  0.58307688  0.96599110  0.80223392     0.78300
O1572       O  0.60648335  0.54560104  0.73810421    -0.57600
O1573       O  0.57097430  0.96503256  0.76897721    -0.49600
O1574       O  0.00900148  0.55554478  0.74088604    -0.75600
O1575       O  0.53450198  0.51665405  0.84280235    -0.59600
C1576       C  0.49979004  0.48884094  0.85070342     0.92100
C1577       C  0.52498689  0.54385089  0.71839350     0.93300
C1578       C  0.93905761  0.56650691  0.76888560     0.77600
O1579       O  0.91588409  0.48838351  0.83066087    -0.49000
O1580       O  0.93852959  0.03994478  0.74415505    -0.50100
O1581       O  0.95590572  0.95653278  0.74567351    -0.63000
O1582       O  0.51686643  0.57399957  0.82528545    -0.64100
C1583       C  0.67865485  0.85629664  0.53139657     0.32000
C1584       C  0.67533023  0.84808553  0.60987270     0.32000
C1585       C  0.66116625  0.87642641  0.55451813    -0.04200
C1586       C  0.65547427  0.80940316  0.54364289    -0.05000
C1587       C  0.71767809  0.87815865  0.55423335    -0.04900
C1588       C  0.65908758  0.87187531  0.59410311    -0.04200
C1589       C  0.65399742  0.80480387  0.58316026    -0.05000
C1590       C  0.71606172  0.87347924  0.59383810    -0.04900
C1591       C  0.64159009  0.89075266  0.60898069    -0.30200
N1592       N  0.63383916  0.90694090  0.57977724     0.16300
C1593       C  0.64621844  0.89926700  0.54684584    -0.30500
H1594       H  0.64439251  0.90990831  0.51948432     0.18200
C1595       C  0.63579022  0.76050056  0.58672469    -0.29200
N1596       N  0.62518602  0.73899023  0.55110033     0.15000
C1597       C  0.63706266  0.76820089  0.52450312    -0.29200
C1598       C  0.75343376  0.89220560  0.60789921    -0.29500
N1599       N  0.77713079  0.90880534  0.57842403     0.15500
H1600       H  0.76268187  0.89301520  0.63704327     0.18100
C1601       C  0.75594016  0.90096605  0.54585898    -0.29500
H1602       H  0.76778347  0.91090876  0.51813235     0.18100
H1603       H  0.63318145  0.76010071  0.49369803     0.18100
H1604       H  0.63471848  0.89222803  0.63854349     0.18200
H1605       H  0.63140158  0.74472588  0.61285708     0.18100
C1606       C  0.67210061  0.84173304  0.78054725     0.32000
C1607       C  0.67627294  0.85153688  0.86021375     0.32000
C1608       C  0.65877939  0.86857376  0.79929005    -0.04200
C1609       C  0.64800944  0.79850144  0.80085019    -0.05000
C1610       C  0.71236665  0.86409538  0.80072470    -0.04900
C1611       C  0.66091352  0.87397476  0.83948280    -0.04200
C1612       C  0.65025521  0.80400721  0.84120228    -0.05000
C1613       C  0.71486954  0.87000695  0.84090051    -0.04900
C1614       C  0.64617814  0.89761028  0.84930309    -0.30200
N1615       N  0.63448514  0.90510564  0.81656370     0.16300
C1616       C  0.64212677  0.88779330  0.78594328    -0.30300
H1617       H  0.63518635  0.88820612  0.75619464     0.18200
C1618       C  0.62886571  0.76274770  0.85445845    -0.29200
N1619       N  0.61399142  0.73239508  0.82370466     0.15000
C1620       C  0.62576462  0.75339786  0.79105539    -0.29200
C1621       C  0.75358062  0.89225681  0.85231395    -0.29500
N1622       N  0.77361781  0.89798717  0.82060246     0.15500
H1623       H  0.76654305  0.90407049  0.88126407     0.18100
C1624       C  0.74897480  0.88096424  0.78909330    -0.29500
H1625       H  0.75727944  0.88116381  0.75986828     0.18100
H1626       H  0.61958759  0.73663995  0.76263512     0.18100
H1627       H  0.64357009  0.90822149  0.87790801     0.18200
H1628       H  0.62514719  0.75535910  0.88419199     0.18100
C1629       C  0.70405118  0.85178824  0.96608880    -0.11400
C1630       C  0.67898187  0.85729470  0.98717487     0.10800
C1631       C  0.64944504  0.85441903  0.96566990    -0.11400
C1632       C  0.64882260  0.85313210  0.92531655    -0.11400
C1633       C  0.67750252  0.85425588  0.90464130     0.10800
C1634       C  0.70322997  0.85013276  0.92577442    -0.11400
H1635       H  0.72338252  0.84678187  0.98055745     0.14800
H1636       H  0.62546586  0.85085147  0.97963303     0.14800
H1637       H  0.62469180  0.84919757  0.91036169     0.14800
H1638       H  0.72185311  0.84371485  0.91124244     0.14800
C1639       C  0.70062562  0.88215744  0.67917835    -0.11400
C1640       C  0.67344318  0.84518726  0.65397310     0.10800
C1641       C  0.64281511  0.80804418  0.67096075    -0.11400
C1642       C  0.64223133  0.80601017  0.71116178    -0.11400
C1643       C  0.67183799  0.84145385  0.73611731     0.10800
C1644       C  0.69974310  0.88037907  0.71922351    -0.11400
H1645       H  0.72260706  0.91296399  0.66793947     0.14800
H1646       H  0.61812799  0.78111354  0.65358103     0.14800
H1647       H  0.61735568  0.77754626  0.72238962     0.14800
H1648       H  0.72105957  0.91001891  0.73718871     0.14800
C1649       C  0.57230338  0.64663426  0.82383953    -0.11300
C1650       C  0.59133185  0.68641169  0.82516211    -0.12800
C1651       C  0.84791131  0.93814040  0.81607150    -0.11300
C1652       C  0.81368898  0.91933118  0.81974290    -0.12800
C1653       C  0.59963445  0.94304397  0.81044185    -0.11300
C1654       C  0.61559693  0.92545635  0.81432336    -0.12800
C1655       C  0.58414043  0.65380004  0.53826356    -0.11300
C1656       C  0.60383619  0.69332423  0.54329415    -0.12800
C1657       C  0.85129126  0.94800933  0.57608253    -0.11300
C1658       C  0.81716689  0.92959085  0.57989620    -0.12800
C1659       C  0.61448942  0.92682254  0.58153374    -0.11300
C1660       C  0.59846089  0.94425572  0.57768310    -0.12800
C1661       C  0.49238957  0.47566882  0.88800145    -0.11300
C1662       C  0.49085515  0.47498044  0.92176543    -0.12800
C1663       C  0.53301734  0.55960357  0.68195915    -0.11300
C1664       C  0.53357088  0.56172891  0.64828385    -0.12800
C1665       C  0.90845764  0.60934540  0.75696056    -0.11300
C1666       C  0.92324540  0.59046911  0.76128199    -0.12800
C1667       C  0.92119966  0.84571869  0.74445630    -0.11300
C1668       C  0.94065816  0.88546792  0.74545441    -0.12800
C1669       C  0.67445443  0.59543774  0.75192987    -0.11300
C1670       C  0.70841385  0.61285355  0.74787972    -0.12800
C1671       C  0.92310263  0.58891557  0.99008436    -0.11300
C1672       C  0.90717328  0.60645824  0.98630515    -0.12800
C1673       C  0.91968277  0.84226537  0.52533391    -0.11300
C1674       C  0.93911308  0.88179977  0.53078238    -0.12800
C1675       C  0.70605988  0.60370117  0.48965683    -0.11300
C1676       C  0.67184134  0.58477945  0.49339947    -0.12800
C1677       C  0.82213097  0.65150966  0.89037376    -0.11400
C1678       C  0.84929229  0.68909761  0.91505024     0.10800
C1679       C  0.87937418  0.72610310  0.89751394    -0.11400
C1680       C  0.87935657  0.72739487  0.85727141    -0.11400
C1681       C  0.84961617  0.69140503  0.83286999     0.10800
C1682       C  0.82237794  0.65258675  0.85026186    -0.11400
H1683       H  0.80066000  0.62081016  0.90210105     0.14800
H1684       H  0.90411705  0.75349643  0.91446037     0.14800
H1685       H  0.90378388  0.75586571  0.84547414     0.14800
H1686       H  0.80118055  0.62252433  0.83269738     0.14800
C1687       C  0.87393256  0.68011651  0.64364293    -0.11400
C1688       C  0.84563427  0.67967763  0.66445031     0.10800
C1689       C  0.82077877  0.68539613  0.64358148    -0.11400
C1690       C  0.82031320  0.68458052  0.60326416    -0.11400
C1691       C  0.84490023  0.67836229  0.58199031     0.10800
C1692       C  0.87369254  0.67971051  0.60335155    -0.11400
H1693       H  0.89768249  0.68313751  0.65840479     0.14800
H1694       H  0.80229016  0.69185058  0.65842206     0.14800
H1695       H  0.80138057  0.69027030  0.58889492     0.14800
H1696       H  0.89743451  0.68273346  0.58935717     0.14800
loop_ 
_geom_bond_atom_site_label_1 
_geom_bond_atom_site_label_2 
_geom_bond_distance 
_geom_bond_site_symmetry_2 
_ccdc_geom_bond_type 
C1            C3   1.544       .  S
C1            C5   1.543       .  S
C1            C4   1.529       .  S
C1          C207   1.549       .  S
C2            C6   1.548       .  S
C2            C8   1.541       .  S
C2            C7   1.547       .  S
C2          C194   1.550       .  S
C3           C11   1.378       .  A
C3          C218   1.403   1_554  A
C4           C15   1.373       .  A
C4          C219   1.402   1_554  A
C5           C19   1.378       .  A
C5          C220   1.402   1_554  A
C6            C9   1.385       .  A
C6          C215   1.403       .  A
C7           C13   1.382       .  A
C7          C216   1.402       .  A
C8           C16   1.382       .  A
C8          C217   1.402       .  A
C9           N10   1.356       .  A
C9           H22   1.082       .  S
N10         C223   1.354       .  A
N10         C403   1.405       .  S
C11         N222   1.354   1_554  A
C11          H12   1.082       .  S
C13         N226   1.354       .  A
C13          H23   1.081       .  S
N14          C15   1.350       .  A
N14         C225   1.354   1_554  A
N14         C189   1.398       .  S
C15          H21   1.082       .  S
C16          N17   1.356       .  A
C16          H18   1.082       .  S
N17         C231   1.353       .  A
N17         C188   1.403       .  S
C19         N229   1.353   1_554  A
C19          H20   1.081       .  S
C24          C26   1.539       .  S
C24          C28   1.534       .  S
C24          C27   1.550       .  S
C24         C197   1.549       .  S
C25          C29   1.551       .  S
C25          C31   1.554       .  S
C25          C30   1.536       .  S
C25         C204   1.548       .  S
C26          C34   1.376       .  A
C26          C29   1.400       .  A
C27          C38   1.385       .  A
C27          C30   1.404       .  A
C28          C42   1.377       .  A
C28          C31   1.400       .  A
C29          C32   1.388       .  A
C30          C36   1.377       .  A
C31          C39   1.390       .  A
C32          N33   1.357       .  A
C32          H45   1.082       .  S
N33          C34   1.352       .  A
N33         C186   1.405       .  S
C34          H35   1.082       .  S
C36          N37   1.352       .  A
C36          H46   1.083       .  S
N37          C38   1.358       .  A
N37         C183   1.405       .  S
C38          H44   1.081       .  S
C39          N40   1.359       .  A
C39          H41   1.081       .  S
N40          C42   1.353       .  A
N40         C181   1.409       .  S
C42          H43   1.082       .  S
C47          O62   1.262   1_554  A
C47          O49   1.256       .  A
C47         C192   1.440   1_554  S
Tb48         O59   2.311       .  S
Tb48         O52   2.348       .  S
Tb48         O69   2.377   1_545  S
Tb48        O706   2.375   1_554  S
Tb48        O495   2.334   1_545  S
Tb48        O478   2.347   1_545  S
Tb48        O276   2.308   1_544  S
Tb48        O920   2.337       .  S
O49         Tb53   2.348       .  S
O50          C61   1.260       .  A
O50        Tb477   2.369       .  S
C51          O56   1.270       .  A
C51          O72   1.271       .  A
C51         C171   1.426       .  S
O52         C280   1.256       .  A
Tb53         O62   2.380   1_554  S
Tb53         O56   2.334       .  S
Tb53         O65   2.304       .  S
Tb53        O474   2.369   1_545  S
Tb53        O269   2.301   1_544  S
Tb53        O487   2.351   1_545  S
Tb53       O1327   2.339   1_545  S
O54         C484   1.257       .  A
O54        Tb472   2.347       .  S
O55          C58   1.270       .  A
O55       Tb1325   2.339       .  S
O57          C67   1.264   1_455  A
O57        Tb265   2.301   1_565  S
C58          O71   1.269       .  A
C58         C190   1.429       .  S
O59         C914   1.266       .  A
C60          O69   1.262       .  A
C60         O478   1.257       .  A
C60         C597   1.439       .  S
C61          O63   1.258       .  A
C61         C176   1.437       .  S
O63        Tb477   2.351       .  S
O64         C915   1.266       .  A
O64        Tb260   2.308   1_565  S
O65          C66   1.265       .  A
C66         O907   1.266   1_455  A
C66         C180   1.400       .  S
C67         O912   1.266       .  A
C67         C178   1.397       .  S
C68         O264   1.256       .  A
C68         O494   1.260       .  A
C68         C187   1.436       .  S
O70         C492   1.260       .  A
O70        Tb684   2.375       .  S
O71        Tb472   2.334       .  S
O72        Tb896   2.337   1_455  S
C73          O88   1.261       .  A
C73          O75   1.260       .  A
C73         C185   1.439       .  S
Tb74         O90   2.321       .  S
Tb74         O85   2.321   1_545  S
Tb74         O78   2.358       .  S
Tb74         O95   2.362   1_545  S
Tb74        O520   2.363       .  S
Tb74        O521   2.363   1_545  S
Tb74        O504   2.350   1_545  S
Tb74        O946   2.358       .  S
O75         Tb79   2.355       .  S
O76          C87   1.261       .  A
O76        Tb503   2.368       .  S
C77          O82   1.274       .  A
C77          O98   1.275       .  A
C77         C165   1.440       .  S
O78          C94   1.263       .  A
Tb79         O83   2.309       .  S
Tb79         O88   2.363       .  S
Tb79         O82   2.356       .  S
Tb79         O91   2.310       .  S
Tb79        O500   2.368   1_545  S
Tb79        O513   2.357   1_545  S
Tb79        O505   2.351   1_445  S
O80         C510   1.262       .  A
O80        Tb498   2.350       .  S
O81         C932   1.274       .  A
O81        Tb503   2.351   1_655  S
O83          C93   1.264       .  A
C84          O97   1.277       .  A
C84         O929   1.274       .  A
C84         C184   1.438       .  S
O85         C940   1.260       .  A
C86          O95   1.264       .  A
C86         O504   1.262       .  A
C86         C591   1.440       .  S
C87          O89   1.259       .  A
C87         C169   1.442       .  S
O89        Tb503   2.357       .  S
O90         C941   1.261       .  A
O91          C92   1.265   1_445  A
C92         O933   1.260       .  A
C92         C177   1.398       .  S
C93         O938   1.261       .  A
C93         C179   1.401       .  S
C94         O520   1.264       .  A
C94         C182   1.445       .  S
O96         C518   1.264       .  A
O96        Tb498   2.363       .  S
O97        Tb498   2.363       .  S
O98        Tb922   2.358   1_455  S
C99         C101   1.540       .  S
C99         C103   1.544       .  S
C99         C102   1.528       .  S
C99         C358   1.548   1_554  S
C100        C104   1.543       .  S
C100        C106   1.549       .  S
C100        C105   1.545       .  S
C100        C156   1.552       .  S
C101        C109   1.376       .  A
C101        C104   1.403       .  A
C102        C113   1.373       .  A
C102        C105   1.401       .  A
C103        C117   1.377       .  A
C103        C106   1.404       .  A
C104        C107   1.383       .  A
C105        C111   1.380       .  A
C106        C114   1.385       .  A
C107        N108   1.357       .  A
C107        H120   1.082       .  S
N108        C109   1.352       .  A
N108        C175   1.403       .  S
C109        H110   1.081       .  S
C111        N112   1.353       .  A
C111        H121   1.081       .  S
N112        C113   1.350       .  A
N112        C172   1.396       .  S
C113        H119   1.082   1_554  S
C114        N115   1.356       .  A
C114        H116   1.082       .  S
N115        C117   1.353       .  A
N115        C174   1.405       .  S
C117        H118   1.081       .  S
C122        C124   1.536       .  S
C122        C126   1.542       .  S
C122        C125   1.553       .  S
C122        C159   1.552       .  S
C123        C127   1.549       .  S
C123        C129   1.549       .  S
C123        C128   1.538       .  S
C123        C149   1.547       .  S
C124        C132   1.377       .  A
C124        C127   1.400       .  A
C125        C136   1.386       .  A
C125        C128   1.405       .  A
C126        C140   1.379       .  A
C126        C129   1.399       .  A
C127        C130   1.387       .  A
C128        C134   1.378       .  A
C129        C137   1.387       .  A
C130        N131   1.357       .  A
C130        H143   1.081       .  S
N131        C132   1.354       .  A
N131        C170   1.407       .  S
C132        H133   1.083       .  S
C134        N135   1.353       .  A
C134        H144   1.083       .  S
N135        C136   1.358       .  A
N135        C166   1.406       .  S
C136        H142   1.080       .  S
C137        N138   1.356       .  A
C137        H139   1.082       .  S
N138        C140   1.353       .  A
N138        C168   1.406       .  S
C140        H141   1.082       .  S
C145        C146   1.409       .  A
C145        C150   1.405       .  A
C145        H151   1.080       .  S
C146        C311   1.548       .  S
C146        C147   1.411       .  A
C147        C148   1.407       .  A
C147        H152   1.079       .  S
C148        C149   1.409       .  A
C148        H153   1.080       .  S
C149        C150   1.410       .  A
C150        H154   1.079       .  S
C155        C156   1.407       .  A
C155        C160   1.405       .  A
C155        H161   1.082       .  S
C156        C157   1.414       .  A
C157        C158   1.412       .  A
C157        H162   1.078       .  S
C158        C159   1.409       .  A
C158        H163   1.077       .  S
C159        C160   1.413       .  A
C160        H164   1.082       .  S
C165        C166   1.210       .  T
C167        C510   1.440       .  S
C167        C168   1.209       .  T
C169        C170   1.210       .  T
C171        C172   1.201       .  T
C173        C484   1.439       .  S
C173        C174   1.208       .  T
C175        C176   1.207       .  T
C177        C178   1.183       .  T
C179        C180   1.184       .  T
C181        C182   1.212       .  T
C183        C184   1.209       .  T
C185        C186   1.209       .  T
C187        C188   1.207       .  T
C189        C190   1.202       .  T
C191        N222   1.405       .  S
C191        C192   1.209       .  T
C193        C194   1.408       .  A
C193        C198   1.405       .  A
C193        H199   1.082       .  S
C194        C195   1.413       .  A
C195        C196   1.410       .  A
C195        H200   1.077       .  S
C196        C197   1.408       .  A
C196        H201   1.078       .  S
C197        C198   1.412       .  A
C198        H202   1.082       .  S
C203        C204   1.409       .  A
C203        C208   1.407       .  A
C203        H209   1.078       .  S
C204        C205   1.411       .  A
C205        C206   1.407       .  A
C205        H210   1.080       .  S
C206        C207   1.410       .  A
C206        H211   1.081       .  S
C207        C208   1.410       .  A
C208        H212   1.079       .  S
C213        C215   1.544       .  S
C213        C217   1.543       .  S
C213        C216   1.529       .  S
C213        C419   1.549       .  S
C214        C218   1.548       .  S
C214        C220   1.541       .  S
C214        C219   1.547       .  S
C214        C406   1.550       .  S
C215        C223   1.378       .  A
C216        C227   1.373       .  A
C217        C231   1.378       .  A
C218        C221   1.385       .  A
C219        C225   1.382       .  A
C220        C228   1.382       .  A
C221        N222   1.356       .  A
C221        H234   1.082       .  S
C223        H224   1.082       .  S
C225        H235   1.081       .  S
N226        C227   1.350       .  A
N226        C401   1.398       .  S
C227        H233   1.082       .  S
C228        N229   1.356       .  A
C228        H230   1.082       .  S
N229        C400   1.403       .  S
C231        H232   1.081       .  S
C236        C238   1.539       .  S
C236        C240   1.534       .  S
C236        C239   1.550       .  S
C236        C409   1.549       .  S
C237        C241   1.551       .  S
C237        C243   1.554       .  S
C237        C242   1.536       .  S
C237        C416   1.548       .  S
C238        C246   1.376       .  A
C238        C241   1.400       .  A
C239        C250   1.385       .  A
C239        C242   1.404       .  A
C240        C254   1.377       .  A
C240        C243   1.400       .  A
C241        C244   1.388       .  A
C242        C248   1.377       .  A
C243        C251   1.390       .  A
C244        N245   1.357       .  A
C244        H257   1.082       .  S
N245        C246   1.352       .  A
N245        C398   1.405       .  S
C246        H247   1.082       .  S
C248        N249   1.352       .  A
C248        H258   1.083       .  S
N249        C250   1.358       .  A
N249        C395   1.405       .  S
C250        H256   1.081       .  S
C251        N252   1.359       .  A
C251        H253   1.081       .  S
N252        C254   1.353       .  A
N252        C393   1.409       .  S
C254        H255   1.082       .  S
C259        O274   1.262       .  A
C259        O261   1.256       .  A
C259        C404   1.440       .  S
Tb260       O494   2.375       .  S
Tb260       O707   2.334   1_545  S
Tb260       O690   2.347   1_545  S
Tb260       O271   2.311       .  S
Tb260       O264   2.348       .  S
Tb260      O1132   2.337       .  S
Tb260       O281   2.377   1_545  S
O261       Tb265   2.348       .  S
O262        C273   1.260       .  A
O262       Tb689   2.369       .  S
C263        O268   1.270       .  A
C263        O284   1.271       .  A
C263        C383   1.426       .  S
Tb265       O686   2.369   1_545  S
Tb265       O274   2.380       .  S
Tb265       O268   2.334       .  S
Tb265       O699   2.351   1_545  S
Tb265       O277   2.304       .  S
Tb265      O1539   2.339   1_545  S
O266        C696   1.257       .  A
O266       Tb684   2.347       .  S
O267        C270   1.270       .  A
O267      Tb1537   2.339       .  S
O269        C279   1.264   1_455  A
C270        O283   1.269       .  A
C270        C402   1.429       .  S
O271       C1126   1.266       .  A
C272        O690   1.257       .  A
C272        O281   1.262       .  A
C272        C809   1.439       .  S
C273        O275   1.258       .  A
C273        C388   1.437       .  S
O275       Tb689   2.351       .  S
O276       C1127   1.266       .  A
O277        C278   1.265       .  A
C278       O1119   1.266   1_455  A
C278        C392   1.400       .  S
C279       O1124   1.266       .  A
C279        C390   1.397       .  S
C280        O706   1.260   1_554  A
C280        C399   1.436   1_554  S
O282        C704   1.260   1_556  A
O282       Tb472   2.375   1_556  S
O283       Tb684   2.334       .  S
O284      Tb1108   2.337   1_455  S
C285        O300   1.261       .  A
C285        O287   1.260       .  A
C285        C397   1.439       .  S
Tb286       O732   2.363       .  S
Tb286       O733   2.363   1_545  S
Tb286       O716   2.350   1_545  S
Tb286       O302   2.321       .  S
Tb286       O297   2.321   1_545  S
Tb286       O290   2.358       .  S
Tb286      O1158   2.358       .  S
Tb286       O307   2.362   1_545  S
O287       Tb291   2.355       .  S
O288        C299   1.261       .  A
O288       Tb715   2.368       .  S
C289        O294   1.274       .  A
C289        O310   1.275       .  A
C289        C377   1.440       .  S
O290        C306   1.263       .  A
Tb291       O712   2.368   1_545  S
Tb291       O295   2.309       .  S
Tb291       O300   2.364       .  S
Tb291       O294   2.356       .  S
Tb291       O725   2.357   1_545  S
Tb291       O303   2.310       .  S
Tb291       O717   2.351   1_445  S
O292        C722   1.262       .  A
O292       Tb710   2.350       .  S
O293       C1144   1.274       .  A
O293       Tb715   2.351   1_655  S
O295        C305   1.264       .  A
C296       O1141   1.274       .  A
C296        O309   1.277       .  A
C296        C396   1.438       .  S
O297       C1152   1.260       .  A
C298        O716   1.262       .  A
C298        O307   1.264       .  A
C298        C803   1.440       .  S
C299        O301   1.259       .  A
C299        C381   1.442       .  S
O301       Tb715   2.357       .  S
O302       C1153   1.261       .  A
O303        C304   1.265   1_445  A
C304       O1145   1.260       .  A
C304        C389   1.398       .  S
C305       O1150   1.261       .  A
C305        C391   1.401       .  S
C306        O732   1.264       .  A
C306        C394   1.445       .  S
O308        C730   1.264       .  A
O308       Tb710   2.363       .  S
O309       Tb710   2.363       .  S
O310      Tb1134   2.358   1_455  S
C311        C313   1.540       .  S
C311        C315   1.544       .  S
C311        C314   1.528       .  S
C312        C316   1.543       .  S
C312        C318   1.549       .  S
C312        C317   1.545       .  S
C312        C368   1.552       .  S
C313        C321   1.376       .  A
C313        C316   1.403       .  A
C314        C325   1.373       .  A
C314        C317   1.401       .  A
C315        C329   1.377       .  A
C315        C318   1.404       .  A
C316        C319   1.383       .  A
C317        C323   1.380       .  A
C318        C326   1.385       .  A
C319        N320   1.357       .  A
C319        H332   1.082       .  S
N320        C321   1.352       .  A
N320        C387   1.403       .  S
C321        H322   1.081       .  S
C323        N324   1.353       .  A
C323        H333   1.081       .  S
N324        C325   1.350       .  A
N324        C384   1.396       .  S
C325        H331   1.082       .  S
C326        N327   1.356       .  A
C326        H328   1.082       .  S
N327        C329   1.353       .  A
N327        C386   1.405       .  S
C329        H330   1.081       .  S
C334        C336   1.536       .  S
C334        C338   1.542       .  S
C334        C337   1.553       .  S
C334        C371   1.552       .  S
C335        C339   1.549       .  S
C335        C341   1.549       .  S
C335        C340   1.538       .  S
C335        C361   1.547       .  S
C336        C344   1.377       .  A
C336        C339   1.400       .  A
C337        C348   1.386       .  A
C337        C340   1.405       .  A
C338        C352   1.379       .  A
C338        C341   1.399       .  A
C339        C342   1.387       .  A
C340        C346   1.378       .  A
C341        C349   1.387       .  A
C342        N343   1.357       .  A
C342        H355   1.081       .  S
N343        C344   1.354       .  A
N343        C382   1.407       .  S
C344        H345   1.083       .  S
C346        N347   1.353       .  A
C346        H356   1.083       .  S
N347        C348   1.358       .  A
N347        C378   1.406       .  S
C348        H354   1.080       .  S
C349        N350   1.356       .  A
C349        H351   1.082       .  S
N350        C352   1.353       .  A
N350        C380   1.406       .  S
C352        H353   1.082       .  S
C357        C358   1.409       .  A
C357        C362   1.405       .  A
C357        H363   1.080       .  S
C358        C359   1.411       .  A
C359        C360   1.407       .  A
C359        H364   1.079       .  S
C360        C361   1.409       .  A
C360        H365   1.080       .  S
C361        C362   1.410       .  A
C362        H366   1.079       .  S
C367        C368   1.407       .  A
C367        C372   1.405       .  A
C367        H373   1.082       .  S
C368        C369   1.414       .  A
C369        C370   1.412       .  A
C369        H374   1.078       .  S
C370        C371   1.409       .  A
C370        H375   1.077       .  S
C371        C372   1.413       .  A
C372        H376   1.082       .  S
C377        C378   1.210       .  T
C379        C722   1.440       .  S
C379        C380   1.209       .  T
C381        C382   1.210       .  T
C383        C384   1.201       .  T
C385        C696   1.439       .  S
C385        C386   1.208       .  T
C387        C388   1.207       .  T
C389        C390   1.183       .  T
C391        C392   1.184       .  T
C393        C394   1.212       .  T
C395        C396   1.209       .  T
C397        C398   1.209       .  T
C399        C400   1.207       .  T
C401        C402   1.202       .  T
C403        C404   1.209       .  T
C405        C406   1.408       .  A
C405        C410   1.405       .  A
C405        H411   1.082       .  S
C406        C407   1.413       .  A
C407        C408   1.410       .  A
C407        H412   1.077       .  S
C408        C409   1.408       .  A
C408        H413   1.078       .  S
C409        C410   1.412       .  A
C410        H414   1.082       .  S
C415        C416   1.409       .  A
C415        C420   1.407       .  A
C415        H421   1.078       .  S
C416        C417   1.411       .  A
C417        C418   1.407       .  A
C417        H422   1.080       .  S
C418        C419   1.410       .  A
C418        H423   1.081       .  S
C419        C420   1.410       .  A
C420        H424   1.079       .  S
C425        C427   1.544       .  S
C425        C429   1.543       .  S
C425        C428   1.529       .  S
C425        C631   1.549       .  S
C426        C430   1.548       .  S
C426        C432   1.541       .  S
C426        C431   1.547       .  S
C426        C618   1.550       .  S
C427        C435   1.378       .  A
C427        C642   1.403   1_554  A
C428        C439   1.373       .  A
C428        C643   1.402   1_554  A
C429        C443   1.378       .  A
C429        C644   1.402   1_554  A
C430        C639   1.403       .  A
C430        C433   1.385       .  A
C431        C640   1.402       .  A
C431        C437   1.382       .  A
C432        C641   1.402       .  A
C432        C440   1.382       .  A
C433        N434   1.356       .  A
C433        H446   1.082       .  S
N434        C647   1.354       .  A
N434        C827   1.405       .  S
C435        N646   1.354   1_554  A
C435        H436   1.082       .  S
C437        N650   1.354       .  A
C437        H447   1.081       .  S
N438        C649   1.354   1_554  A
N438        C439   1.350       .  A
N438        C613   1.398       .  S
C439        H445   1.082       .  S
C440        N441   1.356       .  A
C440        H442   1.082       .  S
N441        C655   1.353       .  A
N441        C612   1.403       .  S
C443        N653   1.353   1_554  A
C443        H444   1.081       .  S
C448        C450   1.539       .  S
C448        C452   1.534       .  S
C448        C451   1.550       .  S
C448        C621   1.549       .  S
C449        C453   1.551       .  S
C449        C455   1.554       .  S
C449        C454   1.536       .  S
C449        C628   1.548       .  S
C450        C458   1.376       .  A
C450        C453   1.400       .  A
C451        C462   1.385       .  A
C451        C454   1.404       .  A
C452        C466   1.377       .  A
C452        C455   1.400       .  A
C453        C456   1.388       .  A
C454        C460   1.377       .  A
C455        C463   1.390       .  A
C456        N457   1.357       .  A
C456        H469   1.082       .  S
N457        C458   1.352       .  A
N457        C610   1.405       .  S
C458        H459   1.082       .  S
C460        N461   1.352       .  A
C460        H470   1.083       .  S
N461        C462   1.358       .  A
N461        C607   1.405       .  S
C462        H468   1.081       .  S
C463        N464   1.359       .  A
C463        H465   1.081       .  S
N464        C466   1.353       .  A
N464        C605   1.409       .  S
C466        H467   1.082       .  S
C471        O486   1.262   1_554  A
C471        O473   1.256       .  A
C471        C616   1.440   1_554  S
Tb472       O700   2.308   1_554  S
Tb472       O483   2.311       .  S
Tb472       O476   2.348       .  S
Tb472      O1344   2.337       .  S
Tb472       O493   2.377       .  S
O473       Tb477   2.348       .  S
O474        C485   1.260       .  A
C475        O480   1.270       .  A
C475        O496   1.271       .  A
C475        C595   1.426       .  S
O476        C704   1.256       .  A
Tb477       O693   2.301   1_554  S
Tb477       O486   2.380   1_554  S
Tb477       O480   2.334       .  S
Tb477       O489   2.304       .  S
Tb477       O903   2.339       .  S
O479        C482   1.270       .  A
O479       Tb901   2.339   1_565  S
O481        C491   1.264   1_455  A
O481       Tb689   2.301       .  S
C482        O495   1.269       .  A
C482        C614   1.429       .  S
O483       C1338   1.266       .  A
C484        O493   1.262       .  A
C485        O487   1.258       .  A
C485        C600   1.437       .  S
O488       C1339   1.266       .  A
O488       Tb684   2.308       .  S
O489        C490   1.265       .  A
C490       O1331   1.266   1_455  A
C490        C604   1.400       .  S
C491       O1336   1.266       .  A
C491        C602   1.397       .  S
C492        O688   1.256       .  A
C492        C611   1.436       .  S
O496      Tb1320   2.337   1_455  S
C497        O512   1.261       .  A
C497        O499   1.260       .  A
C497        C609   1.439       .  S
Tb498       O514   2.321       .  S
Tb498       O509   2.321       .  S
Tb498       O502   2.358       .  S
Tb498      O1370   2.358       .  S
Tb498       O519   2.362       .  S
O499       Tb503   2.355       .  S
O500        C511   1.261       .  A
C501        O506   1.274       .  A
C501        O522   1.275       .  A
C501        C589   1.440       .  S
O502        C518   1.263       .  A
Tb503       O507   2.309       .  S
Tb503       O512   2.363       .  S
Tb503       O506   2.356       .  S
Tb503       O515   2.310       .  S
O505       C1356   1.274       .  A
O507        C517   1.264       .  A
C508       O1353   1.274       .  A
C508        O521   1.277       .  A
C508        C608   1.438       .  S
O509       C1364   1.260       .  A
C510        O519   1.264       .  A
C511        O513   1.259       .  A
C511        C593   1.442       .  S
O514       C1365   1.261       .  A
O515        C516   1.265   1_455  A
C516       O1357   1.260       .  A
C516        C601   1.398       .  S
C517       O1362   1.261       .  A
C517        C603   1.401       .  S
C518        C606   1.445       .  S
O522      Tb1346   2.358   1_455  S
C523        C525   1.540       .  S
C523        C527   1.544       .  S
C523        C526   1.528       .  S
C523        C782   1.548   1_554  S
C524        C528   1.543       .  S
C524        C530   1.549       .  S
C524        C529   1.545       .  S
C524        C580   1.552       .  S
C525        C533   1.376       .  A
C525        C528   1.403       .  A
C526        C537   1.373       .  A
C526        C529   1.401       .  A
C527        C541   1.377       .  A
C527        C530   1.404       .  A
C528        C531   1.383       .  A
C529        C535   1.380       .  A
C530        C538   1.385       .  A
C531        N532   1.357       .  A
C531        H544   1.082       .  S
N532        C533   1.352       .  A
N532        C599   1.403       .  S
C533        H534   1.081       .  S
C535        N536   1.353       .  A
C535        H545   1.081       .  S
N536        C537   1.350       .  A
N536        C596   1.396       .  S
C537        H543   1.082   1_554  S
C538        N539   1.356       .  A
C538        H540   1.082       .  S
N539        C541   1.353       .  A
N539        C598   1.405       .  S
C541        H542   1.081       .  S
C546        C548   1.536       .  S
C546        C550   1.542       .  S
C546        C549   1.553       .  S
C546        C583   1.552       .  S
C547        C551   1.549       .  S
C547        C553   1.549       .  S
C547        C552   1.538       .  S
C547        C573   1.547       .  S
C548        C556   1.377       .  A
C548        C551   1.400       .  A
C549        C560   1.386       .  A
C549        C552   1.405       .  A
C550        C564   1.379       .  A
C550        C553   1.399       .  A
C551        C554   1.387       .  A
C552        C558   1.378       .  A
C553        C561   1.387       .  A
C554        N555   1.357       .  A
C554        H567   1.081       .  S
N555        C556   1.354       .  A
N555        C594   1.407       .  S
C556        H557   1.083       .  S
C558        N559   1.353       .  A
C558        H568   1.083       .  S
N559        C560   1.358       .  A
N559        C590   1.406       .  S
C560        H566   1.080       .  S
C561        N562   1.356       .  A
C561        H563   1.082       .  S
N562        C564   1.353       .  A
N562        C592   1.406       .  S
C564        H565   1.082       .  S
C569        C570   1.409       .  A
C569        C574   1.405       .  A
C569        H575   1.080       .  S
C570        C735   1.548       .  S
C570        C571   1.411       .  A
C571        C572   1.407       .  A
C571        H576   1.079       .  S
C572        C573   1.409       .  A
C572        H577   1.080       .  S
C573        C574   1.410       .  A
C574        H578   1.079       .  S
C579        C580   1.407       .  A
C579        C584   1.405       .  A
C579        H585   1.082       .  S
C580        C581   1.414       .  A
C581        C582   1.412       .  A
C581        H586   1.078       .  S
C582        C583   1.409       .  A
C582        H587   1.077       .  S
C583        C584   1.413       .  A
C584        H588   1.082       .  S
C589        C590   1.210       .  T
C591        C592   1.209       .  T
C593        C594   1.210       .  T
C595        C596   1.201       .  T
C597        C598   1.208       .  T
C599        C600   1.207       .  T
C601        C602   1.183       .  T
C603        C604   1.184       .  T
C605        C606   1.212       .  T
C607        C608   1.209       .  T
C609        C610   1.209       .  T
C611        C612   1.207       .  T
C613        C614   1.202       .  T
C615        N646   1.405       .  S
C615        C616   1.209       .  T
C617        C618   1.408       .  A
C617        C622   1.405       .  A
C617        H623   1.082       .  S
C618        C619   1.413       .  A
C619        C620   1.410       .  A
C619        H624   1.077       .  S
C620        C621   1.408       .  A
C620        H625   1.078       .  S
C621        C622   1.412       .  A
C622        H626   1.082       .  S
C627        C628   1.409       .  A
C627        C632   1.407       .  A
C627        H633   1.078       .  S
C628        C629   1.411       .  A
C629        C630   1.407       .  A
C629        H634   1.080       .  S
C630        C631   1.410       .  A
C630        H635   1.081       .  S
C631        C632   1.410       .  A
C632        H636   1.079       .  S
C637        C639   1.544       .  S
C637        C641   1.543       .  S
C637        C640   1.529       .  S
C637        C843   1.549       .  S
C638        C642   1.548       .  S
C638        C644   1.541       .  S
C638        C643   1.547       .  S
C638        C830   1.550       .  S
C639        C647   1.378       .  A
C640        C651   1.373       .  A
C641        C655   1.378       .  A
C642        C645   1.385       .  A
C643        C649   1.382       .  A
C644        C652   1.382       .  A
C645        N646   1.356       .  A
C645        H658   1.082       .  S
C647        H648   1.082       .  S
C649        H659   1.081       .  S
N650        C651   1.350       .  A
N650        C825   1.398       .  S
C651        H657   1.082       .  S
C652        N653   1.356       .  A
C652        H654   1.082       .  S
N653        C824   1.403       .  S
C655        H656   1.081       .  S
C660        C662   1.539       .  S
C660        C664   1.534       .  S
C660        C663   1.550       .  S
C660        C833   1.549       .  S
C661        C665   1.551       .  S
C661        C667   1.554       .  S
C661        C666   1.536       .  S
C661        C840   1.548       .  S
C662        C670   1.376       .  A
C662        C665   1.400       .  A
C663        C674   1.385       .  A
C663        C666   1.404       .  A
C664        C678   1.377       .  A
C664        C667   1.400       .  A
C665        C668   1.388       .  A
C666        C672   1.377       .  A
C667        C675   1.390       .  A
C668        N669   1.357       .  A
C668        H681   1.082       .  S
N669        C670   1.352       .  A
N669        C822   1.405       .  S
C670        H671   1.082       .  S
C672        N673   1.352       .  A
C672        H682   1.083       .  S
N673        C674   1.358       .  A
N673        C819   1.405       .  S
C674        H680   1.081       .  S
C675        N676   1.359       .  A
C675        H677   1.081       .  S
N676        C678   1.353       .  A
N676        C817   1.409       .  S
C678        H679   1.082       .  S
C683        O698   1.262       .  A
C683        O685   1.256       .  A
C683        C828   1.440       .  S
Tb684       O695   2.311       .  S
Tb684       O688   2.348       .  S
Tb684      O1556   2.337       .  S
Tb684       O705   2.377       .  S
O685       Tb689   2.348       .  S
O686        C697   1.260       .  A
C687        O692   1.270       .  A
C687        O708   1.271       .  A
C687        C807   1.426       .  S
Tb689       O698   2.380       .  S
Tb689       O692   2.334       .  S
Tb689       O701   2.304       .  S
Tb689      O1115   2.339       .  S
O691        C694   1.270       .  A
O691      Tb1113   2.339   1_565  S
O693        C703   1.264   1_455  A
C694        O707   1.269       .  A
C694        C826   1.429       .  S
O695       C1550   1.266       .  A
C696        O705   1.262       .  A
C697        O699   1.258       .  A
C697        C812   1.437       .  S
O700       C1551   1.266       .  A
O701        C702   1.265       .  A
C702       O1543   1.266   1_455  A
C702        C816   1.400       .  S
C703       O1548   1.266       .  A
C703        C814   1.397       .  S
C704        C823   1.436   1_554  S
O708      Tb1532   2.337   1_455  S
C709        O724   1.261       .  A
C709        O711   1.260       .  A
C709        C821   1.439       .  S
Tb710       O726   2.321       .  S
Tb710       O721   2.321       .  S
Tb710       O714   2.358       .  S
Tb710      O1582   2.358       .  S
Tb710       O731   2.362       .  S
O711       Tb715   2.355       .  S
O712        C723   1.261       .  A
C713        O718   1.274       .  A
C713        O734   1.275       .  A
C713        C801   1.440       .  S
O714        C730   1.263       .  A
Tb715       O719   2.309       .  S
Tb715       O724   2.364       .  S
Tb715       O718   2.356       .  S
Tb715       O727   2.310       .  S
O717       C1568   1.274       .  A
O719        C729   1.264       .  A
C720       O1565   1.274       .  A
C720        O733   1.277       .  A
C720        C820   1.438       .  S
O721       C1576   1.260       .  A
C722        O731   1.264       .  A
C723        O725   1.259       .  A
C723        C805   1.442       .  S
O726       C1577   1.261       .  A
O727        C728   1.265   1_455  A
C728       O1569   1.260       .  A
C728        C813   1.398       .  S
C729       O1574   1.261       .  A
C729        C815   1.401       .  S
C730        C818   1.445       .  S
O734      Tb1558   2.358   1_455  S
C735        C737   1.540       .  S
C735        C739   1.544       .  S
C735        C738   1.528       .  S
C736        C740   1.543       .  S
C736        C742   1.549       .  S
C736        C741   1.545       .  S
C736        C792   1.552       .  S
C737        C745   1.376       .  A
C737        C740   1.403       .  A
C738        C749   1.373       .  A
C738        C741   1.401       .  A
C739        C753   1.377       .  A
C739        C742   1.404       .  A
C740        C743   1.383       .  A
C741        C747   1.380       .  A
C742        C750   1.385       .  A
C743        N744   1.357       .  A
C743        H756   1.082       .  S
N744        C745   1.352       .  A
N744        C811   1.403       .  S
C745        H746   1.081       .  S
C747        N748   1.353       .  A
C747        H757   1.081       .  S
N748        C749   1.350       .  A
N748        C808   1.396       .  S
C749        H755   1.082       .  S
C750        N751   1.356       .  A
C750        H752   1.082       .  S
N751        C753   1.353       .  A
N751        C810   1.405       .  S
C753        H754   1.081       .  S
C758        C760   1.536       .  S
C758        C762   1.542       .  S
C758        C761   1.553       .  S
C758        C795   1.552       .  S
C759        C763   1.549       .  S
C759        C765   1.549       .  S
C759        C764   1.538       .  S
C759        C785   1.547       .  S
C760        C768   1.377       .  A
C760        C763   1.400       .  A
C761        C772   1.386       .  A
C761        C764   1.405       .  A
C762        C776   1.379       .  A
C762        C765   1.399       .  A
C763        C766   1.387       .  A
C764        C770   1.378       .  A
C765        C773   1.387       .  A
C766        N767   1.357       .  A
C766        H779   1.081       .  S
N767        C768   1.354       .  A
N767        C806   1.407       .  S
C768        H769   1.083       .  S
C770        N771   1.353       .  A
C770        H780   1.083       .  S
N771        C772   1.358       .  A
N771        C802   1.406       .  S
C772        H778   1.080       .  S
C773        N774   1.356       .  A
C773        H775   1.082       .  S
N774        C776   1.353       .  A
N774        C804   1.406       .  S
C776        H777   1.082       .  S
C781        C782   1.409       .  A
C781        C786   1.405       .  A
C781        H787   1.080       .  S
C782        C783   1.411       .  A
C783        C784   1.407       .  A
C783        H788   1.079       .  S
C784        C785   1.409       .  A
C784        H789   1.080       .  S
C785        C786   1.410       .  A
C786        H790   1.079       .  S
C791        C792   1.407       .  A
C791        C796   1.405       .  A
C791        H797   1.082       .  S
C792        C793   1.414       .  A
C793        C794   1.412       .  A
C793        H798   1.078       .  S
C794        C795   1.409       .  A
C794        H799   1.077       .  S
C795        C796   1.413       .  A
C796        H800   1.082       .  S
C801        C802   1.210       .  T
C803        C804   1.209       .  T
C805        C806   1.210       .  T
C807        C808   1.201       .  T
C809        C810   1.208       .  T
C811        C812   1.207       .  T
C813        C814   1.183       .  T
C815        C816   1.184       .  T
C817        C818   1.212       .  T
C819        C820   1.209       .  T
C821        C822   1.209       .  T
C823        C824   1.207       .  T
C825        C826   1.202       .  T
C827        C828   1.209       .  T
C829        C830   1.408       .  A
C829        C834   1.405       .  A
C829        H835   1.082       .  S
C830        C831   1.413       .  A
C831        C832   1.410       .  A
C831        H836   1.077       .  S
C832        C833   1.408       .  A
C832        H837   1.078       .  S
C833        C834   1.412       .  A
C834        H838   1.082       .  S
C839        C840   1.409       .  A
C839        C844   1.407       .  A
C839        H845   1.078       .  S
C840        C841   1.411       .  A
C841        C842   1.407       .  A
C841        H846   1.080       .  S
C842        C843   1.410       .  A
C842        H847   1.081       .  S
C843        C844   1.410       .  A
C844        H848   1.079       .  S
C849        C851   1.544       .  S
C849        C853   1.543       .  S
C849        C852   1.529       .  S
C849       C1055   1.549       .  S
C850        C854   1.548       .  S
C850        C856   1.541       .  S
C850        C855   1.547       .  S
C850       C1042   1.550       .  S
C851        C859   1.378       .  A
C851       C1066   1.403   1_554  A
C852        C863   1.373       .  A
C852       C1067   1.402   1_554  A
C853        C867   1.378       .  A
C853       C1068   1.402   1_554  A
C854       C1063   1.403       .  A
C854        C857   1.385       .  A
C855       C1064   1.402       .  A
C855        C861   1.382       .  A
C856       C1065   1.402       .  A
C856        C864   1.382       .  A
C857        N858   1.356       .  A
C857        H870   1.082       .  S
N858       C1071   1.354       .  A
N858       C1251   1.405       .  S
C859       N1070   1.354   1_554  A
C859        H860   1.082       .  S
C861       N1074   1.354       .  A
C861        H871   1.081       .  S
N862       C1073   1.354   1_554  A
N862        C863   1.350       .  A
N862       C1037   1.398       .  S
C863        H869   1.082       .  S
C864        N865   1.356       .  A
C864        H866   1.082       .  S
N865       C1079   1.353       .  A
N865       C1036   1.403       .  S
C867       N1077   1.353   1_554  A
C867        H868   1.081       .  S
C872        C874   1.539       .  S
C872        C876   1.534       .  S
C872        C875   1.550       .  S
C872       C1045   1.549       .  S
C873        C877   1.551       .  S
C873        C879   1.554       .  S
C873        C878   1.536       .  S
C873       C1052   1.548       .  S
C874        C882   1.376       .  A
C874        C877   1.400       .  A
C875        C886   1.385       .  A
C875        C878   1.404       .  A
C876        C890   1.377       .  A
C876        C879   1.400       .  A
C877        C880   1.388       .  A
C878        C884   1.377       .  A
C879        C887   1.390       .  A
C880        N881   1.357       .  A
C880        H893   1.082       .  S
N881        C882   1.352       .  A
N881       C1034   1.405       .  S
C882        H883   1.082       .  S
C884        N885   1.352       .  A
C884        H894   1.083       .  S
N885        C886   1.358       .  A
N885       C1031   1.405       .  S
C886        H892   1.081       .  S
C887        N888   1.359       .  A
C887        H889   1.081       .  S
N888        C890   1.353       .  A
N888       C1029   1.409       .  S
C890        H891   1.082       .  S
C895        O910   1.262   1_554  A
C895        O897   1.256       .  A
C895       C1040   1.440   1_554  S
Tb896      O1554   2.375   1_554  S
Tb896      O1343   2.334   1_545  S
Tb896      O1326   2.347   1_545  S
Tb896      O1124   2.308   1_544  S
Tb896       O907   2.311       .  S
Tb896       O900   2.348       .  S
Tb896       O917   2.377   1_545  S
O897       Tb901   2.348       .  S
O898        C909   1.260       .  A
O898      Tb1325   2.369       .  S
C899        O904   1.270       .  A
C899        O920   1.271       .  A
C899       C1019   1.426       .  S
O900       C1128   1.256       .  A
Tb901      O1322   2.369   1_545  S
Tb901      O1117   2.301   1_544  S
Tb901       O910   2.380   1_554  S
Tb901       O904   2.334       .  S
Tb901      O1335   2.351   1_545  S
Tb901       O913   2.304       .  S
O902       C1332   1.257       .  A
O902      Tb1320   2.347       .  S
O903        C906   1.270   1_455  A
O905        C915   1.264       .  A
O905      Tb1113   2.301   1_565  S
C906        O919   1.269       .  A
C906       C1038   1.429       .  S
C908       O1326   1.257       .  A
C908        O917   1.262       .  A
C908       C1445   1.439       .  S
C909        O911   1.258       .  A
C909       C1024   1.437       .  S
O911      Tb1325   2.351       .  S
O912      Tb1108   2.308   1_565  S
O913        C914   1.265       .  A
C914       C1028   1.400       .  S
C915       C1026   1.397       .  S
C916       O1112   1.256       .  A
C916       O1342   1.260       .  A
C916       C1035   1.436       .  S
O918       C1340   1.260       .  A
O918      Tb1532   2.375       .  S
O919      Tb1320   2.334       .  S
C921        O936   1.261       .  A
C921        O923   1.260       .  A
C921       C1033   1.439       .  S
Tb922      O1368   2.363       .  S
Tb922      O1369   2.363   1_545  S
Tb922      O1352   2.350   1_545  S
Tb922       O938   2.321   1_655  S
Tb922       O933   2.321   1_545  S
Tb922       O926   2.358       .  S
Tb922       O943   2.362   1_545  S
O923       Tb927   2.355       .  S
O924        C935   1.261       .  A
O924      Tb1351   2.368       .  S
C925        O930   1.274       .  A
C925        O946   1.275       .  A
C925       C1013   1.440       .  S
O926        C942   1.263       .  A
Tb927      O1348   2.368   1_545  S
Tb927       O931   2.309       .  S
Tb927       O936   2.363       .  S
Tb927       O930   2.356       .  S
Tb927      O1361   2.357   1_545  S
Tb927       O939   2.310       .  S
Tb927      O1353   2.351   1_545  S
O928       C1358   1.262       .  A
O928      Tb1346   2.350       .  S
O929      Tb1351   2.351       .  S
O931        C941   1.264       .  A
C932        O945   1.277       .  A
C932       C1032   1.438       .  S
C934       O1352   1.262       .  A
C934        O943   1.264       .  A
C934       C1439   1.440       .  S
C935        O937   1.259       .  A
C935       C1017   1.442       .  S
O937      Tb1351   2.357       .  S
O939        C940   1.265   1_545  A
C940       C1025   1.398       .  S
C941       C1027   1.401       .  S
C942       O1368   1.264       .  A
C942       C1030   1.445       .  S
O944       C1366   1.264       .  A
O944      Tb1346   2.363       .  S
O945      Tb1346   2.363       .  S
C947        C949   1.540       .  S
C947        C951   1.544       .  S
C947        C950   1.528       .  S
C947       C1206   1.548   1_554  S
C948        C952   1.543       .  S
C948        C954   1.549       .  S
C948        C953   1.545       .  S
C948       C1004   1.552       .  S
C949        C957   1.376       .  A
C949        C952   1.403       .  A
C950        C961   1.373       .  A
C950        C953   1.401       .  A
C951        C965   1.377       .  A
C951        C954   1.404       .  A
C952        C955   1.383       .  A
C953        C959   1.380       .  A
C954        C962   1.385       .  A
C955        N956   1.357       .  A
C955        H968   1.082       .  S
N956        C957   1.352       .  A
N956       C1023   1.403       .  S
C957        H958   1.081       .  S
C959        N960   1.353       .  A
C959        H969   1.081       .  S
N960        C961   1.350       .  A
N960       C1020   1.396       .  S
C961        H967   1.082   1_554  S
C962        N963   1.356       .  A
C962        H964   1.082       .  S
N963        C965   1.353       .  A
N963       C1022   1.405       .  S
C965        H966   1.081       .  S
C970        C972   1.536       .  S
C970        C974   1.542       .  S
C970        C973   1.553       .  S
C970       C1007   1.552       .  S
C971        C975   1.549       .  S
C971        C977   1.549       .  S
C971        C976   1.538       .  S
C971        C997   1.547       .  S
C972        C980   1.377       .  A
C972        C975   1.400       .  A
C973        C984   1.386       .  A
C973        C976   1.405       .  A
C974        C988   1.379       .  A
C974        C977   1.399       .  A
C975        C978   1.387       .  A
C976        C982   1.378       .  A
C977        C985   1.387       .  A
C978        N979   1.357       .  A
C978        H991   1.081       .  S
N979        C980   1.354       .  A
N979       C1018   1.407       .  S
C980        H981   1.083       .  S
C982        N983   1.353       .  A
C982        H992   1.083       .  S
N983        C984   1.358       .  A
N983       C1014   1.406       .  S
C984        H990   1.080       .  S
C985        N986   1.356       .  A
C985        H987   1.082       .  S
N986        C988   1.353       .  A
N986       C1016   1.406       .  S
C988        H989   1.082       .  S
C993        C994   1.409       .  A
C993        C998   1.405       .  A
C993        H999   1.080       .  S
C994       C1159   1.548       .  S
C994        C995   1.411       .  A
C995        C996   1.407       .  A
C995       H1000   1.079       .  S
C996        C997   1.409       .  A
C996       H1001   1.080       .  S
C997        C998   1.410       .  A
C998       H1002   1.079       .  S
C1003      C1004   1.407       .  A
C1003      C1008   1.405       .  A
C1003      H1009   1.082       .  S
C1004      C1005   1.414       .  A
C1005      C1006   1.412       .  A
C1005      H1010   1.078       .  S
C1006      C1007   1.409       .  A
C1006      H1011   1.077       .  S
C1007      C1008   1.413       .  A
C1008      H1012   1.082       .  S
C1013      C1014   1.210       .  T
C1015      C1358   1.440       .  S
C1015      C1016   1.209       .  T
C1017      C1018   1.210       .  T
C1019      C1020   1.201       .  T
C1021      C1332   1.439       .  S
C1021      C1022   1.208       .  T
C1023      C1024   1.207       .  T
C1025      C1026   1.183       .  T
C1027      C1028   1.184       .  T
C1029      C1030   1.212       .  T
C1031      C1032   1.209       .  T
C1033      C1034   1.209       .  T
C1035      C1036   1.207       .  T
C1037      C1038   1.202       .  T
C1039      N1070   1.405       .  S
C1039      C1040   1.209       .  T
C1041      C1042   1.408       .  A
C1041      C1046   1.405       .  A
C1041      H1047   1.082       .  S
C1042      C1043   1.413       .  A
C1043      C1044   1.410       .  A
C1043      H1048   1.077       .  S
C1044      C1045   1.408       .  A
C1044      H1049   1.078       .  S
C1045      C1046   1.412       .  A
C1046      H1050   1.082       .  S
C1051      C1052   1.409       .  A
C1051      C1056   1.407       .  A
C1051      H1057   1.078       .  S
C1052      C1053   1.411       .  A
C1053      C1054   1.407       .  A
C1053      H1058   1.080       .  S
C1054      C1055   1.410       .  A
C1054      H1059   1.081       .  S
C1055      C1056   1.410       .  A
C1056      H1060   1.079       .  S
C1061      C1063   1.544       .  S
C1061      C1065   1.543       .  S
C1061      C1064   1.529       .  S
C1061      C1267   1.549       .  S
C1062      C1066   1.548       .  S
C1062      C1068   1.541       .  S
C1062      C1067   1.547       .  S
C1062      C1254   1.550       .  S
C1063      C1071   1.378       .  A
C1064      C1075   1.373       .  A
C1065      C1079   1.378       .  A
C1066      C1069   1.385       .  A
C1067      C1073   1.382       .  A
C1068      C1076   1.382       .  A
C1069      N1070   1.356       .  A
C1069      H1082   1.082       .  S
C1071      H1072   1.082       .  S
C1073      H1083   1.081       .  S
N1074      C1075   1.350       .  A
N1074      C1249   1.398       .  S
C1075      H1081   1.082       .  S
C1076      N1077   1.356       .  A
C1076      H1078   1.082       .  S
N1077      C1248   1.403       .  S
C1079      H1080   1.081       .  S
C1084      C1086   1.539       .  S
C1084      C1088   1.534       .  S
C1084      C1087   1.550       .  S
C1084      C1257   1.549       .  S
C1085      C1089   1.551       .  S
C1085      C1091   1.554       .  S
C1085      C1090   1.536       .  S
C1085      C1264   1.548       .  S
C1086      C1094   1.376       .  A
C1086      C1089   1.400       .  A
C1087      C1098   1.385       .  A
C1087      C1090   1.404       .  A
C1088      C1102   1.377       .  A
C1088      C1091   1.400       .  A
C1089      C1092   1.388       .  A
C1090      C1096   1.377       .  A
C1091      C1099   1.390       .  A
C1092      N1093   1.357       .  A
C1092      H1105   1.082       .  S
N1093      C1094   1.352       .  A
N1093      C1246   1.405       .  S
C1094      H1095   1.082       .  S
C1096      N1097   1.352       .  A
C1096      H1106   1.083       .  S
N1097      C1098   1.358       .  A
N1097      C1243   1.405       .  S
C1098      H1104   1.081       .  S
C1099      N1100   1.359       .  A
C1099      H1101   1.081       .  S
N1100      C1102   1.353       .  A
N1100      C1241   1.409       .  S
C1102      H1103   1.082       .  S
C1107      O1122   1.262       .  A
C1107      O1109   1.256       .  A
C1107      C1252   1.440       .  S
Tb1108     O1342   2.375       .  S
Tb1108     O1555   2.334   1_545  S
Tb1108     O1538   2.347   1_545  S
Tb1108     O1119   2.311       .  S
Tb1108     O1112   2.348       .  S
Tb1108     O1129   2.377   1_545  S
O1109     Tb1113   2.348       .  S
O1110      C1121   1.260       .  A
O1110     Tb1537   2.369       .  S
C1111      O1116   1.270       .  A
C1111      O1132   1.271       .  A
C1111      C1231   1.426       .  S
Tb1113     O1534   2.369   1_545  S
Tb1113     O1122   2.380       .  S
Tb1113     O1116   2.334       .  S
Tb1113     O1547   2.351   1_545  S
Tb1113     O1125   2.304       .  S
O1114      C1544   1.257       .  A
O1114     Tb1532   2.347       .  S
O1115      C1118   1.270   1_455  A
O1117      C1127   1.264       .  A
C1118      O1131   1.269       .  A
C1118      C1250   1.429       .  S
C1120      O1538   1.257       .  A
C1120      O1129   1.262       .  A
C1120      C1657   1.439       .  S
C1121      O1123   1.258       .  A
C1121      C1236   1.437       .  S
O1123     Tb1537   2.351       .  S
O1125      C1126   1.265       .  A
C1126      C1240   1.400       .  S
C1127      C1238   1.397       .  S
C1128      O1554   1.260   1_554  A
C1128      C1247   1.436   1_554  S
O1130      C1552   1.260   1_556  A
O1130     Tb1320   2.375   1_556  S
O1131     Tb1532   2.334       .  S
C1133      O1148   1.261       .  A
C1133      O1135   1.260       .  A
C1133      C1245   1.439       .  S
Tb1134     O1580   2.363       .  S
Tb1134     O1581   2.363   1_545  S
Tb1134     O1564   2.350   1_545  S
Tb1134     O1150   2.321   1_655  S
Tb1134     O1145   2.321   1_545  S
Tb1134     O1138   2.358       .  S
Tb1134     O1155   2.362   1_545  S
O1135     Tb1139   2.355       .  S
O1136      C1147   1.261       .  A
O1136     Tb1563   2.368       .  S
C1137      O1142   1.274       .  A
C1137      O1158   1.275       .  A
C1137      C1225   1.440       .  S
O1138      C1154   1.263       .  A
Tb1139     O1560   2.368   1_545  S
Tb1139     O1143   2.309       .  S
Tb1139     O1148   2.364       .  S
Tb1139     O1142   2.356       .  S
Tb1139     O1573   2.357   1_545  S
Tb1139     O1151   2.310       .  S
Tb1139     O1565   2.351   1_545  S
O1140      C1570   1.262       .  A
O1140     Tb1558   2.350       .  S
O1141     Tb1563   2.351       .  S
O1143      C1153   1.264       .  A
C1144      O1157   1.277       .  A
C1144      C1244   1.438       .  S
C1146      O1564   1.262       .  A
C1146      O1155   1.264       .  A
C1146      C1651   1.440       .  S
C1147      O1149   1.259       .  A
C1147      C1229   1.442       .  S
O1149     Tb1563   2.357       .  S
O1151      C1152   1.265   1_545  A
C1152      C1237   1.398       .  S
C1153      C1239   1.401       .  S
C1154      O1580   1.264       .  A
C1154      C1242   1.445       .  S
O1156      C1578   1.264       .  A
O1156     Tb1558   2.363       .  S
O1157     Tb1558   2.363       .  S
C1159      C1161   1.540       .  S
C1159      C1163   1.544       .  S
C1159      C1162   1.528       .  S
C1160      C1164   1.543       .  S
C1160      C1166   1.549       .  S
C1160      C1165   1.545       .  S
C1160      C1216   1.552       .  S
C1161      C1169   1.376       .  A
C1161      C1164   1.403       .  A
C1162      C1173   1.373       .  A
C1162      C1165   1.401       .  A
C1163      C1177   1.377       .  A
C1163      C1166   1.404       .  A
C1164      C1167   1.383       .  A
C1165      C1171   1.380       .  A
C1166      C1174   1.385       .  A
C1167      N1168   1.357       .  A
C1167      H1180   1.082       .  S
N1168      C1169   1.352       .  A
N1168      C1235   1.403       .  S
C1169      H1170   1.081       .  S
C1171      N1172   1.353       .  A
C1171      H1181   1.081       .  S
N1172      C1173   1.350       .  A
N1172      C1232   1.396       .  S
C1173      H1179   1.082       .  S
C1174      N1175   1.356       .  A
C1174      H1176   1.082       .  S
N1175      C1177   1.353       .  A
N1175      C1234   1.405       .  S
C1177      H1178   1.081       .  S
C1182      C1184   1.536       .  S
C1182      C1186   1.542       .  S
C1182      C1185   1.553       .  S
C1182      C1219   1.552       .  S
C1183      C1187   1.549       .  S
C1183      C1189   1.549       .  S
C1183      C1188   1.538       .  S
C1183      C1209   1.547       .  S
C1184      C1192   1.377       .  A
C1184      C1187   1.400       .  A
C1185      C1196   1.386       .  A
C1185      C1188   1.405       .  A
C1186      C1200   1.379       .  A
C1186      C1189   1.399       .  A
C1187      C1190   1.387       .  A
C1188      C1194   1.378       .  A
C1189      C1197   1.387       .  A
C1190      N1191   1.357       .  A
C1190      H1203   1.081       .  S
N1191      C1192   1.354       .  A
N1191      C1230   1.407       .  S
C1192      H1193   1.083       .  S
C1194      N1195   1.353       .  A
C1194      H1204   1.083       .  S
N1195      C1196   1.358       .  A
N1195      C1226   1.406       .  S
C1196      H1202   1.080       .  S
C1197      N1198   1.356       .  A
C1197      H1199   1.082       .  S
N1198      C1200   1.353       .  A
N1198      C1228   1.406       .  S
C1200      H1201   1.082       .  S
C1205      C1206   1.409       .  A
C1205      C1210   1.405       .  A
C1205      H1211   1.080       .  S
C1206      C1207   1.411       .  A
C1207      C1208   1.407       .  A
C1207      H1212   1.079       .  S
C1208      C1209   1.409       .  A
C1208      H1213   1.080       .  S
C1209      C1210   1.410       .  A
C1210      H1214   1.079       .  S
C1215      C1216   1.407       .  A
C1215      C1220   1.405       .  A
C1215      H1221   1.082       .  S
C1216      C1217   1.414       .  A
C1217      C1218   1.412       .  A
C1217      H1222   1.078       .  S
C1218      C1219   1.409       .  A
C1218      H1223   1.077       .  S
C1219      C1220   1.413       .  A
C1220      H1224   1.082       .  S
C1225      C1226   1.210       .  T
C1227      C1570   1.440       .  S
C1227      C1228   1.209       .  T
C1229      C1230   1.210       .  T
C1231      C1232   1.201       .  T
C1233      C1544   1.439       .  S
C1233      C1234   1.208       .  T
C1235      C1236   1.207       .  T
C1237      C1238   1.183       .  T
C1239      C1240   1.184       .  T
C1241      C1242   1.212       .  T
C1243      C1244   1.209       .  T
C1245      C1246   1.209       .  T
C1247      C1248   1.207       .  T
C1249      C1250   1.202       .  T
C1251      C1252   1.209       .  T
C1253      C1254   1.408       .  A
C1253      C1258   1.405       .  A
C1253      H1259   1.082       .  S
C1254      C1255   1.413       .  A
C1255      C1256   1.410       .  A
C1255      H1260   1.077       .  S
C1256      C1257   1.408       .  A
C1256      H1261   1.078       .  S
C1257      C1258   1.412       .  A
C1258      H1262   1.082       .  S
C1263      C1264   1.409       .  A
C1263      C1268   1.407       .  A
C1263      H1269   1.078       .  S
C1264      C1265   1.411       .  A
C1265      C1266   1.407       .  A
C1265      H1270   1.080       .  S
C1266      C1267   1.410       .  A
C1266      H1271   1.081       .  S
C1267      C1268   1.410       .  A
C1268      H1272   1.079       .  S
C1273      C1275   1.544       .  S
C1273      C1277   1.543       .  S
C1273      C1276   1.529       .  S
C1273      C1479   1.549       .  S
C1274      C1278   1.548       .  S
C1274      C1280   1.541       .  S
C1274      C1279   1.547       .  S
C1274      C1466   1.550       .  S
C1275      C1283   1.378       .  A
C1275      C1490   1.403   1_554  A
C1276      C1287   1.373       .  A
C1276      C1491   1.402   1_554  A
C1277      C1291   1.378       .  A
C1277      C1492   1.402   1_554  A
C1278      C1487   1.403       .  A
C1278      C1281   1.385       .  A
C1279      C1488   1.402       .  A
C1279      C1285   1.382       .  A
C1280      C1489   1.402       .  A
C1280      C1288   1.382       .  A
C1281      N1282   1.356       .  A
C1281      H1294   1.082       .  S
N1282      C1495   1.354       .  A
N1282      C1675   1.405       .  S
C1283      N1494   1.354   1_554  A
C1283      H1284   1.082       .  S
C1285      N1498   1.354       .  A
C1285      H1295   1.081       .  S
N1286      C1497   1.354   1_554  A
N1286      C1287   1.350       .  A
N1286      C1461   1.398       .  S
C1287      H1293   1.082       .  S
C1288      N1289   1.356       .  A
C1288      H1290   1.082       .  S
N1289      C1503   1.353       .  A
N1289      C1460   1.403       .  S
C1291      N1501   1.353   1_554  A
C1291      H1292   1.081       .  S
C1296      C1298   1.539       .  S
C1296      C1300   1.534       .  S
C1296      C1299   1.550       .  S
C1296      C1469   1.549       .  S
C1297      C1301   1.551       .  S
C1297      C1303   1.554       .  S
C1297      C1302   1.536       .  S
C1297      C1476   1.548       .  S
C1298      C1306   1.376       .  A
C1298      C1301   1.400       .  A
C1299      C1310   1.385       .  A
C1299      C1302   1.404       .  A
C1300      C1314   1.377       .  A
C1300      C1303   1.400       .  A
C1301      C1304   1.388       .  A
C1302      C1308   1.377       .  A
C1303      C1311   1.390       .  A
C1304      N1305   1.357       .  A
C1304      H1317   1.082       .  S
N1305      C1306   1.352       .  A
N1305      C1458   1.405       .  S
C1306      H1307   1.082       .  S
C1308      N1309   1.352       .  A
C1308      H1318   1.083       .  S
N1309      C1310   1.358       .  A
N1309      C1455   1.405       .  S
C1310      H1316   1.081       .  S
C1311      N1312   1.359       .  A
C1311      H1313   1.081       .  S
N1312      C1314   1.353       .  A
N1312      C1453   1.409       .  S
C1314      H1315   1.082       .  S
C1319      O1334   1.262   1_554  A
C1319      O1321   1.256       .  A
C1319      C1464   1.440   1_554  S
Tb1320     O1548   2.308   1_554  S
Tb1320     O1331   2.311       .  S
Tb1320     O1324   2.348       .  S
Tb1320     O1341   2.377       .  S
O1321     Tb1325   2.348       .  S
O1322      C1333   1.260       .  A
C1323      O1328   1.270       .  A
C1323      O1344   1.271       .  A
C1323      C1443   1.426       .  S
O1324      C1552   1.256       .  A
Tb1325     O1541   2.301   1_554  S
Tb1325     O1334   2.380   1_554  S
Tb1325     O1328   2.334       .  S
Tb1325     O1337   2.304       .  S
O1327      C1330   1.270   1_455  A
O1329      C1339   1.264       .  A
O1329     Tb1537   2.301       .  S
C1330      O1343   1.269       .  A
C1330      C1462   1.429       .  S
C1332      O1341   1.262       .  A
C1333      O1335   1.258       .  A
C1333      C1448   1.437       .  S
O1336     Tb1532   2.308       .  S
O1337      C1338   1.265       .  A
C1338      C1452   1.400       .  S
C1339      C1450   1.397       .  S
C1340      O1536   1.256       .  A
C1340      C1459   1.436       .  S
C1345      O1360   1.261       .  A
C1345      O1347   1.260       .  A
C1345      C1457   1.439       .  S
Tb1346     O1362   2.321   1_655  S
Tb1346     O1357   2.321       .  S
Tb1346     O1350   2.358       .  S
Tb1346     O1367   2.362       .  S
O1347     Tb1351   2.355       .  S
O1348      C1359   1.261       .  A
C1349      O1354   1.274       .  A
C1349      O1370   1.275       .  A
C1349      C1437   1.440       .  S
O1350      C1366   1.263       .  A
Tb1351     O1355   2.309       .  S
Tb1351     O1360   2.363       .  S
Tb1351     O1354   2.356       .  S
Tb1351     O1363   2.310       .  S
O1355      C1365   1.264       .  A
C1356      O1369   1.277       .  A
C1356      C1456   1.438       .  S
C1358      O1367   1.264       .  A
C1359      O1361   1.259       .  A
C1359      C1441   1.442       .  S
O1363      C1364   1.265       .  A
C1364      C1449   1.398       .  S
C1365      C1451   1.401       .  S
C1366      C1454   1.445       .  S
C1371      C1373   1.540       .  S
C1371      C1375   1.544       .  S
C1371      C1374   1.528       .  S
C1371      C1630   1.548   1_554  S
C1372      C1376   1.543       .  S
C1372      C1378   1.549       .  S
C1372      C1377   1.545       .  S
C1372      C1428   1.552       .  S
C1373      C1381   1.376       .  A
C1373      C1376   1.403       .  A
C1374      C1385   1.373       .  A
C1374      C1377   1.401       .  A
C1375      C1389   1.377       .  A
C1375      C1378   1.404       .  A
C1376      C1379   1.383       .  A
C1377      C1383   1.380       .  A
C1378      C1386   1.385       .  A
C1379      N1380   1.357       .  A
C1379      H1392   1.082       .  S
N1380      C1381   1.352       .  A
N1380      C1447   1.403       .  S
C1381      H1382   1.081       .  S
C1383      N1384   1.353       .  A
C1383      H1393   1.081       .  S
N1384      C1385   1.350       .  A
N1384      C1444   1.396       .  S
C1385      H1391   1.082   1_554  S
C1386      N1387   1.356       .  A
C1386      H1388   1.082       .  S
N1387      C1389   1.353       .  A
N1387      C1446   1.405       .  S
C1389      H1390   1.081       .  S
C1394      C1396   1.536       .  S
C1394      C1398   1.542       .  S
C1394      C1397   1.553       .  S
C1394      C1431   1.552       .  S
C1395      C1399   1.549       .  S
C1395      C1401   1.549       .  S
C1395      C1400   1.538       .  S
C1395      C1421   1.547       .  S
C1396      C1404   1.377       .  A
C1396      C1399   1.400       .  A
C1397      C1408   1.386       .  A
C1397      C1400   1.405       .  A
C1398      C1412   1.379       .  A
C1398      C1401   1.399       .  A
C1399      C1402   1.387       .  A
C1400      C1406   1.378       .  A
C1401      C1409   1.387       .  A
C1402      N1403   1.357       .  A
C1402      H1415   1.081       .  S
N1403      C1404   1.354       .  A
N1403      C1442   1.407       .  S
C1404      H1405   1.083       .  S
C1406      N1407   1.353       .  A
C1406      H1416   1.083       .  S
N1407      C1408   1.358       .  A
N1407      C1438   1.406       .  S
C1408      H1414   1.080       .  S
C1409      N1410   1.356       .  A
C1409      H1411   1.082       .  S
N1410      C1412   1.353       .  A
N1410      C1440   1.406       .  S
C1412      H1413   1.082       .  S
C1417      C1418   1.409       .  A
C1417      C1422   1.405       .  A
C1417      H1423   1.080       .  S
C1418      C1583   1.548       .  S
C1418      C1419   1.411       .  A
C1419      C1420   1.407       .  A
C1419      H1424   1.079       .  S
C1420      C1421   1.409       .  A
C1420      H1425   1.080       .  S
C1421      C1422   1.410       .  A
C1422      H1426   1.079       .  S
C1427      C1428   1.407       .  A
C1427      C1432   1.405       .  A
C1427      H1433   1.082       .  S
C1428      C1429   1.414       .  A
C1429      C1430   1.412       .  A
C1429      H1434   1.078       .  S
C1430      C1431   1.409       .  A
C1430      H1435   1.077       .  S
C1431      C1432   1.413       .  A
C1432      H1436   1.082       .  S
C1437      C1438   1.210       .  T
C1439      C1440   1.209       .  T
C1441      C1442   1.210       .  T
C1443      C1444   1.201       .  T
C1445      C1446   1.208       .  T
C1447      C1448   1.207       .  T
C1449      C1450   1.183       .  T
C1451      C1452   1.184       .  T
C1453      C1454   1.212       .  T
C1455      C1456   1.209       .  T
C1457      C1458   1.209       .  T
C1459      C1460   1.207       .  T
C1461      C1462   1.202       .  T
C1463      N1494   1.405       .  S
C1463      C1464   1.209       .  T
C1465      C1466   1.408       .  A
C1465      C1470   1.405       .  A
C1465      H1471   1.082       .  S
C1466      C1467   1.413       .  A
C1467      C1468   1.410       .  A
C1467      H1472   1.077       .  S
C1468      C1469   1.408       .  A
C1468      H1473   1.078       .  S
C1469      C1470   1.412       .  A
C1470      H1474   1.082       .  S
C1475      C1476   1.409       .  A
C1475      C1480   1.407       .  A
C1475      H1481   1.078       .  S
C1476      C1477   1.411       .  A
C1477      C1478   1.407       .  A
C1477      H1482   1.080       .  S
C1478      C1479   1.410       .  A
C1478      H1483   1.081       .  S
C1479      C1480   1.410       .  A
C1480      H1484   1.079       .  S
C1485      C1487   1.544       .  S
C1485      C1489   1.543       .  S
C1485      C1488   1.529       .  S
C1485      C1691   1.549       .  S
C1486      C1490   1.548       .  S
C1486      C1492   1.541       .  S
C1486      C1491   1.547       .  S
C1486      C1678   1.550       .  S
C1487      C1495   1.378       .  A
C1488      C1499   1.373       .  A
C1489      C1503   1.378       .  A
C1490      C1493   1.385       .  A
C1491      C1497   1.382       .  A
C1492      C1500   1.382       .  A
C1493      N1494   1.356       .  A
C1493      H1506   1.082       .  S
C1495      H1496   1.082       .  S
C1497      H1507   1.081       .  S
N1498      C1499   1.350       .  A
N1498      C1673   1.398       .  S
C1499      H1505   1.082       .  S
C1500      N1501   1.356       .  A
C1500      H1502   1.082       .  S
N1501      C1672   1.403       .  S
C1503      H1504   1.081       .  S
C1508      C1510   1.539       .  S
C1508      C1512   1.534       .  S
C1508      C1511   1.550       .  S
C1508      C1681   1.549       .  S
C1509      C1513   1.551       .  S
C1509      C1515   1.554       .  S
C1509      C1514   1.536       .  S
C1509      C1688   1.548       .  S
C1510      C1518   1.376       .  A
C1510      C1513   1.400       .  A
C1511      C1522   1.385       .  A
C1511      C1514   1.404       .  A
C1512      C1526   1.377       .  A
C1512      C1515   1.400       .  A
C1513      C1516   1.388       .  A
C1514      C1520   1.377       .  A
C1515      C1523   1.390       .  A
C1516      N1517   1.357       .  A
C1516      H1529   1.082       .  S
N1517      C1518   1.352       .  A
N1517      C1670   1.405       .  S
C1518      H1519   1.082       .  S
C1520      N1521   1.352       .  A
C1520      H1530   1.083       .  S
N1521      C1522   1.358       .  A
N1521      C1667   1.405       .  S
C1522      H1528   1.081       .  S
C1523      N1524   1.359       .  A
C1523      H1525   1.081       .  S
N1524      C1526   1.353       .  A
N1524      C1665   1.409       .  S
C1526      H1527   1.082       .  S
C1531      O1546   1.262       .  A
C1531      O1533   1.256       .  A
C1531      C1676   1.440       .  S
Tb1532     O1543   2.311       .  S
Tb1532     O1536   2.348       .  S
Tb1532     O1553   2.377       .  S
O1533     Tb1537   2.348       .  S
O1534      C1545   1.260       .  A
C1535      O1540   1.270       .  A
C1535      O1556   1.271       .  A
C1535      C1655   1.426       .  S
Tb1537     O1546   2.380       .  S
Tb1537     O1540   2.334       .  S
Tb1537     O1549   2.304       .  S
O1539      C1542   1.270   1_455  A
O1541      C1551   1.264       .  A
C1542      O1555   1.269       .  A
C1542      C1674   1.429       .  S
C1544      O1553   1.262       .  A
C1545      O1547   1.258       .  A
C1545      C1660   1.437       .  S
O1549      C1550   1.265       .  A
C1550      C1664   1.400       .  S
C1551      C1662   1.397       .  S
C1552      C1671   1.436   1_554  S
C1557      O1572   1.261       .  A
C1557      O1559   1.260       .  A
C1557      C1669   1.439       .  S
Tb1558     O1574   2.321   1_655  S
Tb1558     O1569   2.321       .  S
Tb1558     O1562   2.358       .  S
Tb1558     O1579   2.362       .  S
O1559     Tb1563   2.355       .  S
O1560      C1571   1.261       .  A
C1561      O1566   1.274       .  A
C1561      O1582   1.275       .  A
C1561      C1649   1.440       .  S
O1562      C1578   1.263       .  A
Tb1563     O1567   2.309       .  S
Tb1563     O1572   2.364       .  S
Tb1563     O1566   2.356       .  S
Tb1563     O1575   2.310       .  S
O1567      C1577   1.264       .  A
C1568      O1581   1.277       .  A
C1568      C1668   1.438       .  S
C1570      O1579   1.264       .  A
C1571      O1573   1.259       .  A
C1571      C1653   1.442       .  S
O1575      C1576   1.265       .  A
C1576      C1661   1.398       .  S
C1577      C1663   1.401       .  S
C1578      C1666   1.445       .  S
C1583      C1585   1.540       .  S
C1583      C1587   1.544       .  S
C1583      C1586   1.528       .  S
C1584      C1588   1.543       .  S
C1584      C1590   1.549       .  S
C1584      C1589   1.545       .  S
C1584      C1640   1.552       .  S
C1585      C1593   1.376       .  A
C1585      C1588   1.403       .  A
C1586      C1597   1.373       .  A
C1586      C1589   1.401       .  A
C1587      C1601   1.377       .  A
C1587      C1590   1.404       .  A
C1588      C1591   1.383       .  A
C1589      C1595   1.380       .  A
C1590      C1598   1.385       .  A
C1591      N1592   1.357       .  A
C1591      H1604   1.082       .  S
N1592      C1593   1.352       .  A
N1592      C1659   1.403       .  S
C1593      H1594   1.081       .  S
C1595      N1596   1.353       .  A
C1595      H1605   1.081       .  S
N1596      C1597   1.350       .  A
N1596      C1656   1.396       .  S
C1597      H1603   1.082       .  S
C1598      N1599   1.356       .  A
C1598      H1600   1.082       .  S
N1599      C1601   1.353       .  A
N1599      C1658   1.405       .  S
C1601      H1602   1.081       .  S
C1606      C1608   1.536       .  S
C1606      C1610   1.542       .  S
C1606      C1609   1.553       .  S
C1606      C1643   1.552       .  S
C1607      C1611   1.549       .  S
C1607      C1613   1.549       .  S
C1607      C1612   1.538       .  S
C1607      C1633   1.547       .  S
C1608      C1616   1.377       .  A
C1608      C1611   1.400       .  A
C1609      C1620   1.386       .  A
C1609      C1612   1.405       .  A
C1610      C1624   1.379       .  A
C1610      C1613   1.399       .  A
C1611      C1614   1.387       .  A
C1612      C1618   1.378       .  A
C1613      C1621   1.387       .  A
C1614      N1615   1.357       .  A
C1614      H1627   1.081       .  S
N1615      C1616   1.354       .  A
N1615      C1654   1.407       .  S
C1616      H1617   1.083       .  S
C1618      N1619   1.353       .  A
C1618      H1628   1.083       .  S
N1619      C1620   1.358       .  A
N1619      C1650   1.406       .  S
C1620      H1626   1.080       .  S
C1621      N1622   1.356       .  A
C1621      H1623   1.082       .  S
N1622      C1624   1.353       .  A
N1622      C1652   1.406       .  S
C1624      H1625   1.082       .  S
C1629      C1630   1.409       .  A
C1629      C1634   1.405       .  A
C1629      H1635   1.080       .  S
C1630      C1631   1.411       .  A
C1631      C1632   1.407       .  A
C1631      H1636   1.079       .  S
C1632      C1633   1.409       .  A
C1632      H1637   1.080       .  S
C1633      C1634   1.410       .  A
C1634      H1638   1.079       .  S
C1639      C1640   1.407       .  A
C1639      C1644   1.405       .  A
C1639      H1645   1.082       .  S
C1640      C1641   1.414       .  A
C1641      C1642   1.412       .  A
C1641      H1646   1.078       .  S
C1642      C1643   1.409       .  A
C1642      H1647   1.077       .  S
C1643      C1644   1.413       .  A
C1644      H1648   1.082       .  S
C1649      C1650   1.210       .  T
C1651      C1652   1.209       .  T
C1653      C1654   1.210       .  T
C1655      C1656   1.201       .  T
C1657      C1658   1.208       .  T
C1659      C1660   1.207       .  T
C1661      C1662   1.183       .  T
C1663      C1664   1.184       .  T
C1665      C1666   1.212       .  T
C1667      C1668   1.209       .  T
C1669      C1670   1.209       .  T
C1671      C1672   1.207       .  T
C1673      C1674   1.202       .  T
C1675      C1676   1.209       .  T
C1677      C1678   1.408       .  A
C1677      C1682   1.405       .  A
C1677      H1683   1.082       .  S
C1678      C1679   1.413       .  A
C1679      C1680   1.410       .  A
C1679      H1684   1.077       .  S
C1680      C1681   1.408       .  A
C1680      H1685   1.078       .  S
C1681      C1682   1.412       .  A
C1682      H1686   1.082       .  S
C1687      C1688   1.409       .  A
C1687      C1692   1.407       .  A
C1687      H1693   1.078       .  S
C1688      C1689   1.411       .  A
C1689      C1690   1.407       .  A
C1689      H1694   1.080       .  S
C1690      C1691   1.410       .  A
C1690      H1695   1.081       .  S
C1691      C1692   1.410       .  A
C1692      H1696   1.079       .  S
