geometry optimzed in LAMMPS
_audit_creation_date              2020-11-30 
_audit_creation_method            'lammps2cif' 
_symmetry_space_group_name_H-M    'P1' 
_symmetry_Int_Tables_number       1 
_symmetry_cell_setting            triclinic 
loop_ 
_symmetry_equiv_pos_as_xyz 
  x,y,z 
_cell_length_a                    38.00653379 
_cell_length_b                    38.1286874175349 
_cell_length_c                    38.296607867411275 
_cell_angle_alpha                 90.19328375577808 
_cell_angle_beta                  89.95417198352814 
_cell_angle_gamma                 90.13492279119878 
loop_ 
_atom_site_label 
_atom_site_type_symbol 
_atom_site_fract_x 
_atom_site_fract_y 
_atom_site_fract_z 
_atom_site_charge 
C1          C  0.13430504  0.73185620  0.96702605     0.79900
N2          N  0.15159772  0.73167632  0.99783746    -0.78400
C3          C  0.13453660  0.73290460  0.02870176     0.82400
N4          N  0.09850663  0.73468353  0.02887642    -0.78300
C5          C  0.07995445  0.73516353  0.99803897     0.82500
N6          N  0.09826955  0.73402566  0.96706374    -0.80000
C7          C  0.38962706  0.59387109  0.02560751     0.79900
N8          N  0.38106907  0.60958831  0.99513946    -0.78400
C9          C  0.39640471  0.59904517  0.96492472     0.82400
N10         N  0.42039681  0.57282807  0.96516401    -0.78300
C11         C  0.42975056  0.55740441  0.99571303     0.82500
N12         N  0.41394452  0.56798603  0.02576502    -0.80000
C13         C  0.98387165  0.23789474  0.03305179     0.79900
N14         N  0.96597228  0.23468377  0.00274001    -0.78400
C15         C  0.98235988  0.23109685  0.97166130     0.82400
N16         N  0.01833684  0.23180838  0.97076321    -0.78300
C17         C  0.03759751  0.23489698  0.00089620     0.82500
N18         N  0.02003305  0.23753405  0.03229835    -0.80000
C19         C  0.72296825  0.37742044  0.97233721     0.79900
N20         N  0.73658594  0.36576957  0.00291116    -0.78400
C21         C  0.72663729  0.38063691  0.03354816     0.82400
N22         N  0.70309412  0.40717681  0.03367928    -0.78300
C23         C  0.68876148  0.41880176  0.00345564     0.82500
N24         N  0.69930821  0.40403953  0.97276730    -0.80000
C25         C  0.80707827  0.95404697  0.07346795     0.79900
N26         N  0.80410759  0.98511032  0.09058428    -0.78400
C27         C  0.80224998  0.01594456  0.07332339     0.82400
N28         N  0.80418361  0.01606712  0.03778023    -0.78300
C29         C  0.80694643  0.98532537  0.01945561     0.82500
N30         N  0.80846644  0.95420713  0.03757572    -0.80000
C31         C  0.66740829  0.00992361  0.33045687     0.79900
N32         N  0.68239142  0.97855907  0.32378817    -0.78400
C33         C  0.66986097  0.94914550  0.33898408     0.82400
N34         N  0.64193922  0.95076289  0.36066039    -0.78300
C35         C  0.62667723  0.98186315  0.36811983     0.82500
N36         N  0.63956321  0.01138583  0.35272122    -0.80000
C37         C  0.30506301  0.01919144  0.92722224     0.79900
N38         N  0.30570403  0.01819960  0.96297515    -0.78400
C39         C  0.30733176  0.98666619  0.98021475     0.82400
N40         N  0.30843537  0.95622432  0.96097617    -0.78300
C41         C  0.30766443  0.95715610  0.92522108     0.82500
N42         N  0.30594533  0.98865758  0.90923691    -0.80000
C43         C  0.44570156  0.95499188  0.65476846     0.79900
N44         N  0.47371755  0.95559099  0.63299657    -0.78400
C45         C  0.48820142  0.98655188  0.62296610     0.82400
N46         N  0.47485191  0.01689533  0.63620508    -0.78300
C47         C  0.44698818  0.01645374  0.65835445     0.82500
N48         N  0.43274370  0.98532211  0.66780492    -0.80000
C49         C  0.98616655  0.74190412  0.03008662     0.79900
N50         N  0.02215012  0.73956689  0.02937907    -0.78400
C51         C  0.04012222  0.73737790  0.99830126     0.82400
N52         N  0.02130965  0.73777754  0.96762692    -0.78300
C53         C  0.98533600  0.74061981  0.96817695     0.82500
N54         N  0.96856114  0.74236644  0.99929917    -0.80000
C55         C  0.72162424  0.59821349  0.03199798     0.79900
N56         N  0.73618621  0.60949818  0.00167571    -0.78400
C57         C  0.72707348  0.59458449  0.97077241     0.82400
N58         N  0.70299269  0.56830351  0.97041164    -0.78300
C59         C  0.68745519  0.55723809  0.00031758     0.82500
N60         N  0.69755414  0.57196533  0.03109774    -0.80000
C61         C  0.12983840  0.23538940  0.96466313     0.79900
N62         N  0.09387116  0.23508212  0.96682576    -0.78400
C63         C  0.07737639  0.23566560  0.99884932     0.82400
N64         N  0.09764441  0.23673620  0.02859176    -0.78300
C65         C  0.13370101  0.23745238  0.02635289     0.82500
N66         N  0.14882842  0.23617398  0.99447054    -0.80000
C67         C  0.39108611  0.37826355  0.96836248     0.79900
N68         N  0.41395510  0.40561721  0.96668618    -0.78400
C69         C  0.43035679  0.41798130  0.99583152     0.82400
N70         N  0.42245715  0.40338392  0.02724981    -0.78300
C71         C  0.39952389  0.37621153  0.02920456     0.82500
N72         N  0.38418024  0.36376716  0.99977643    -0.80000
C73         C  0.81286185  0.95788775  0.92480358     0.79900
N74         N  0.81355547  0.98973373  0.90917875    -0.78400
C75         C  0.81246768  0.01995645  0.92776242     0.82400
N76         N  0.80998612  0.01835099  0.96334704    -0.78300
C77         C  0.80903885  0.98655967  0.98011126     0.82500
N78         N  0.81034678  0.95639550  0.96051666    -0.80000
C79         C  0.64435695  0.01886239  0.70130925     0.79900
N80         N  0.62647625  0.01946325  0.67061474    -0.78400
C81         C  0.61789301  0.98897141  0.65390524     0.82400
N82         N  0.62805745  0.95782803  0.66811221    -0.78300
C83         C  0.64560420  0.95680685  0.69896030     0.82500
N84         N  0.65324174  0.98747979  0.71519513    -0.80000
C85         C  0.30981689  0.01550963  0.07422754     0.79900
N86         N  0.30858998  0.01618606  0.03854633    -0.78400
C87         C  0.30808827  0.98558192  0.01964482     0.82400
N88         N  0.30838509  0.95418803  0.03722799    -0.78300
C89         C  0.30919772  0.95350085  0.07304297     0.82500
N90         N  0.30978696  0.98425337  0.09085701    -0.80000
C91         C  0.44505779  0.95367411  0.33443319     0.79900
N92         N  0.47097435  0.95591300  0.35852169    -0.78400
C93         C  0.48534682  0.98737809  0.36738503     0.82400
N94         N  0.47384505  0.01665751  0.35087435    -0.78300
C95         C  0.44774273  0.01490293  0.32664989     0.82500
N96         N  0.43349660  0.98329693  0.31869380    -0.80000
C97         C  0.02678120  0.06155222  0.75697441     0.79900
N98         N  0.02593098  0.02570127  0.75463798    -0.78400
C99         C  0.05656288  0.00666307  0.75324567     0.82400
N100        N  0.08812367  0.02420925  0.75360835    -0.78300
C101        C  0.08900908  0.06007115  0.75557307     0.82500
N102        N  0.05835465  0.07806594  0.75725983    -0.80000
C103        C  0.02691900  0.31867239  0.61286386     0.79900
N104        N  0.02770083  0.34265641  0.58692677    -0.78400
C105        C  0.05846417  0.35184023  0.57146515     0.82400
N106        N  0.08847789  0.33546711  0.58142273    -0.78300
C107        C  0.08824125  0.31141356  0.60741387     0.82500
N108        N  0.05738773  0.30336633  0.62319925    -0.80000
C109        C  0.08411117  0.91152129  0.74869111     0.79900
N110        N  0.08564940  0.94752078  0.74963242    -0.78400
C111        C  0.05532603  0.96710607  0.75186030     0.82400
N112        N  0.02353930  0.95009125  0.75341574    -0.78300
C113        C  0.02205340  0.91430011  0.75302932     0.82500
N114        N  0.05230200  0.89581148  0.75112221    -0.80000
C115        C  0.02432497  0.65044015  0.61421323     0.79900
N116        N  0.05518184  0.66310916  0.62646933    -0.78400
C117        C  0.08567413  0.65370162  0.61088234     0.82400
N118        N  0.08526514  0.63170527  0.58300917    -0.78300
C119        C  0.05427386  0.61911920  0.57025834     0.82500
N120        N  0.02394023  0.62899081  0.58603239    -0.80000
C121        C  0.09126725  0.91314126  0.25472379     0.79900
N122        N  0.09176495  0.94897421  0.25226679    -0.78400
C123        C  0.06088227  0.96747219  0.24867508     0.82400
N124        N  0.02970392  0.94950880  0.24662635    -0.78300
C125        C  0.02905284  0.91378049  0.24905881     0.82500
N126        N  0.05982675  0.89655864  0.25338991    -0.80000
C127        C  0.08950503  0.64306229  0.38538764     0.79900
N128        N  0.05865547  0.65389439  0.37159923    -0.78400
C129        C  0.02778387  0.64319128  0.38563918     0.82400
N130        N  0.02808108  0.62182181  0.41383668    -0.78300
C131        C  0.05894074  0.61085778  0.42819061     0.82500
N132        N  0.08966883  0.62244935  0.41416337    -0.80000
C133        C  0.03193576  0.06219578  0.24248898     0.79900
N134        N  0.03080927  0.02611009  0.24365303    -0.78400
C135        C  0.06138171  0.00685329  0.24650743     0.82400
N136        N  0.09290709  0.02409084  0.24809580    -0.78300
C137        C  0.09398069  0.05974344  0.24708805     0.82500
N138        N  0.06366962  0.07786870  0.24473287    -0.80000
C139        C  0.08922355  0.30924578  0.39502372     0.79900
N140        N  0.08749538  0.33351822  0.42074455    -0.78400
C141        C  0.05617693  0.34199472  0.43551552     0.82400
N142        N  0.02648331  0.32544762  0.42440874    -0.78300
C143        C  0.02794567  0.30138507  0.39834633     0.82500
N144        N  0.05930561  0.29389206  0.38320805    -0.80000
C145        C  0.31284432  0.51461385  0.42419643     0.79900
N146        N  0.31063460  0.48343183  0.40752928    -0.78400
C147        C  0.30855405  0.45274767  0.42501811     0.82400
N148        N  0.30814186  0.45319655  0.46079912    -0.78300
C149        C  0.30966189  0.48441526  0.47877427     0.82500
N150        N  0.31180408  0.51521713  0.46007630    -0.80000
C151        C  0.17365469  0.45673870  0.15420841     0.79900
N152        N  0.14438927  0.45485710  0.13409158    -0.78400
C153        C  0.13095513  0.48385313  0.11853174     0.82400
N154        N  0.14686866  0.51538627  0.12422368    -0.78300
C155        C  0.17655118  0.51748302  0.14383891     0.82500
N156        N  0.18954353  0.48814529  0.15886107    -0.80000
O157        O  0.26607506  0.73898354  0.14141726    -0.86800
O158        O  0.24011115  0.70728333  0.33562518    -0.86900
O159        O  0.22057856  0.66953972  0.21400652    -0.88600
O160        O  0.20514867  0.78142588  0.24617956    -0.87400
O161        O  0.24162100  0.82835942  0.25482880    -0.86900
O162        O  0.26702412  0.63198406  0.22040804    -0.88300
O163        O  0.20485627  0.70814973  0.28681212    -0.86800
O164        O  0.21758580  0.73274105  0.17680739    -0.86400
Zr165      Zr  0.23939926  0.72675980  0.23663357     2.84300
O166        O  0.26593688  0.75910631  0.28109101    -1.08400
O167        O  0.28472705  0.70075541  0.20436602    -1.09100
C168        C  0.23236992  0.73556873  0.14650713     1.06300
C169        C  0.21059476  0.70265736  0.31959865     1.06300
C170        C  0.23563270  0.63942671  0.21004891     1.09300
C171        C  0.21070014  0.81468653  0.25142020     1.07000
H172        H  0.25942782  0.67072387  0.28145886     0.32600
O173        O  0.27362857  0.68956943  0.27223044    -1.29300
H174        H  0.25998719  0.78547131  0.19674077     0.32300
O175        O  0.27432020  0.77052901  0.21126789    -1.31000
O176        O  0.35242212  0.72452763  0.35580139    -0.86800
O177        O  0.38007802  0.76190691  0.16376284    -0.88300
O178        O  0.31370138  0.62629297  0.29295039    -0.86800
O179        O  0.28304185  0.82226480  0.31390529    -0.86900
O180        O  0.30485830  0.83918934  0.20200306    -0.86600
O181        O  0.33448019  0.64470949  0.18016028    -0.86400
O182        O  0.41386872  0.68514429  0.26000796    -0.86800
O183        O  0.40003213  0.79809614  0.27593931    -0.86200
O184        O  0.37659860  0.63967905  0.24833989    -0.87300
O185        O  0.35313568  0.83587684  0.27117892    -0.86500
O186        O  0.30403119  0.66300819  0.33947821    -0.86900
O187        O  0.33449335  0.69302842  0.14421163    -0.86600
O188        O  0.31507863  0.80327105  0.15508864    -0.86200
O189        O  0.28185632  0.77409839  0.35003736    -0.86600
O190        O  0.40028426  0.73489215  0.32091958    -0.86900
O191        O  0.41499415  0.75715971  0.21257326    -0.88300
Zr192      Zr  0.29958321  0.72258254  0.31745241     2.83100
Zr193      Zr  0.31953143  0.74415748  0.17877937     2.83500
Zr194      Zr  0.31853999  0.66365377  0.23967819     2.84100
Zr195      Zr  0.30051649  0.80324040  0.25592599     2.83400
Zr196      Zr  0.37886290  0.73978463  0.26103592     2.84200
O197        O  0.34531275  0.77626218  0.22429212    -1.08800
O198        O  0.34392979  0.69592939  0.28502014    -1.08300
C199        C  0.38600297  0.72903956  0.35096841     1.06300
C200        C  0.40979515  0.76447467  0.18023582     1.08900
C201        C  0.30872276  0.63230489  0.32611409     1.06500
C202        C  0.27757533  0.80692911  0.34336469     1.06800
C203        C  0.30945538  0.83374856  0.16878287     1.06400
C204        C  0.33894398  0.66012048  0.15035300     1.06000
C205        C  0.40719875  0.65195878  0.25566741     1.06400
C206        C  0.38558352  0.82861224  0.27770585     1.05900
H207        H  0.37336745  0.69717130  0.20145954     0.32600
O208        O  0.35412159  0.70757019  0.21495861    -1.29900
H209        H  0.34405652  0.78084053  0.31211895     0.32600
O210        O  0.33420433  0.76710101  0.29327893    -1.31300
C211        C  0.48440350  0.23501707  0.46762830     0.79900
N212        N  0.52042489  0.23600270  0.46860723    -0.78400
C213        C  0.53809433  0.23403478  0.49985758     0.82400
N214        N  0.51910145  0.23115850  0.53019569    -0.78300
C215        C  0.48316035  0.22942316  0.52925797     0.82500
N216        N  0.46681645  0.23175401  0.49816335    -0.80000
C217        C  0.22652443  0.09624804  0.46728590     0.79900
N218        N  0.20337114  0.06921302  0.46621682    -0.78400
C219        C  0.18966036  0.05572373  0.49605540     0.82400
N220        N  0.20019530  0.06931468  0.52723188    -0.78300
C221        C  0.22352514  0.09624223  0.52863597     0.82500
N222        N  0.23687670  0.10955167  0.49855274    -0.80000
O223        O  0.30324436  0.13115720  0.79652800    -0.86800
O224        O  0.33363615  0.32620026  0.81380921    -0.86900
O225        O  0.37563113  0.20835031  0.83738633    -0.88600
O226        O  0.26167755  0.23116388  0.85347682    -0.87400
O227        O  0.21515173  0.24050024  0.81660600    -0.86900
O228        O  0.41219833  0.20997409  0.78975046    -0.88300
O229        O  0.33081524  0.27943700  0.85149817    -0.86800
O230        O  0.31187860  0.16796696  0.84306004    -0.86400
Zr231      Zr  0.31657993  0.22658485  0.81854627     2.84300
O232        O  0.28390923  0.26999848  0.79058463    -1.08400
O233        O  0.34268393  0.19184051  0.77513118    -1.09100
C234        C  0.30710106  0.13718604  0.82971284     1.06300
C235        C  0.33632347  0.31208659  0.84432862     1.06300
C236        C  0.40571046  0.20382089  0.82212895     1.09300
C237        C  0.22833851  0.23552959  0.84730219     1.07000
H238        H  0.37188810  0.27109765  0.79664335     0.32600
O239        O  0.35331566  0.26093548  0.78269811    -1.29300
H240        H  0.25751214  0.18597678  0.79948984     0.32300
O241        O  0.27237177  0.20026012  0.78477953    -1.31000
O242        O  0.31607769  0.34092730  0.70122346    -0.86800
O243        O  0.28211498  0.14507209  0.68324366    -0.88300
O244        O  0.41592874  0.27926944  0.74350148    -0.86800
O245        O  0.22180950  0.30284685  0.77683021    -0.86900
O246        O  0.20250310  0.18996314  0.75598017    -0.86600
O247        O  0.39773501  0.16676040  0.72436678    -0.86400
O248        O  0.35786948  0.23987710  0.64436169    -0.86800
O249        O  0.24464977  0.25787041  0.65693981    -0.86200
O250        O  0.40428489  0.23138189  0.68151151    -0.87300
O251        O  0.20680335  0.25692164  0.70389914    -0.86500
O252        O  0.37999758  0.32655409  0.75154886    -0.86900
O253        O  0.34957167  0.13024331  0.72758755    -0.86600
O254        O  0.23869506  0.14276533  0.74652112    -0.86200
O255        O  0.27007366  0.33874500  0.77264285    -0.86600
O256        O  0.30829693  0.30339979  0.65498014    -0.86900
O257        O  0.28600751  0.19208181  0.64583042    -0.88300
Zr258      Zr  0.32023868  0.30477425  0.75505406     2.83100
Zr259      Zr  0.29855412  0.16539412  0.74177308     2.83500
Zr260      Zr  0.37889771  0.22628617  0.73919534     2.84100
Zr261      Zr  0.23911508  0.24393736  0.75750782     2.83400
Zr262      Zr  0.30281688  0.24421788  0.67871880     2.84200
O263        O  0.26617716  0.20969248  0.71455892    -1.08800
O264        O  0.34690969  0.27059876  0.71196545    -1.08300
C265        C  0.31236261  0.33441181  0.66803448     1.06300
C266        C  0.27918965  0.15968967  0.65295832     1.08900
C267        C  0.41060355  0.31254386  0.74770778     1.06500
C268        C  0.23784316  0.33253259  0.78097812     1.06800
C269        C  0.20818710  0.15658499  0.75202820     1.06400
C270        C  0.38235076  0.13658607  0.72169823     1.06000
C271        C  0.39117876  0.23591897  0.65090683     1.06400
C272        C  0.21409821  0.26121173  0.67115221     1.05900
H273        H  0.34508620  0.18539662  0.68709990     0.32600
O274        O  0.33494724  0.19969969  0.70535322    -1.29900
H275        H  0.26187282  0.29748899  0.71132918     0.32600
O276        O  0.27559718  0.27899674  0.72178714    -1.31300
C277        C  0.48412481  0.72943805  0.46913338     0.79900
N278        N  0.46721177  0.72868734  0.50028063    -0.78400
C279        C  0.48511963  0.72905964  0.53083078     0.82400
N280        N  0.52105555  0.73004285  0.53040570    -0.78300
C281        C  0.53900469  0.73051078  0.49935563     0.82500
N282        N  0.52021594  0.73030590  0.46869609    -0.80000
C283        C  0.22982255  0.87850260  0.52582852     0.79900
N284        N  0.23883145  0.86450926  0.49459113    -0.78400
C285        C  0.22443349  0.87638083  0.46455493     0.82400
N286        N  0.20045919  0.90245113  0.46592137    -0.78300
C287        C  0.19031175  0.91649284  0.49693018     0.82500
N288        N  0.20556426  0.90467743  0.52679629    -0.80000
C289        C  0.30917718  0.51680972  0.57209269     0.79900
N290        N  0.30631070  0.48610170  0.58942382    -0.78400
C291        C  0.30439730  0.45482738  0.57305671     0.82400
N292        N  0.30605583  0.45406928  0.53719370    -0.78300
C293        C  0.30873804  0.48479943  0.51843642     0.82500
N294        N  0.31045214  0.51605620  0.53633561    -0.80000
C295        C  0.17763995  0.45605740  0.84208839     0.79900
N296        N  0.18935648  0.48630536  0.82798667    -0.78400
C297        C  0.17313012  0.51698797  0.83521720     0.82400
N298        N  0.14541897  0.51727432  0.85769105    -0.78300
C299        C  0.13348035  0.48695935  0.87223396     0.82500
N300        N  0.14923569  0.45638526  0.86326844    -0.80000
O301        O  0.26277727  0.74674559  0.85385361    -0.86800
O302        O  0.23884265  0.71215726  0.66029565    -0.86900
O303        O  0.20121464  0.78526223  0.75463847    -0.88600
O304        O  0.21832710  0.67305295  0.77615733    -0.87400
O305        O  0.26495989  0.63520342  0.77062202    -0.86900
O306        O  0.23826724  0.83158055  0.74508946    -0.88300
O307        O  0.20319644  0.71476686  0.70888514    -0.86800
O308        O  0.21541698  0.73841448  0.81767876    -0.86400
Zr309      Zr  0.23785880  0.73165874  0.75884349     2.84300
O310        O  0.27247907  0.69547925  0.72264198    -1.08400
O311        O  0.27181906  0.77567786  0.78454671    -1.09100
C312        C  0.22921704  0.74324701  0.84799690     1.06300
C313        C  0.20916806  0.70823418  0.67643688     1.06300
C314        C  0.20739581  0.81851195  0.75025518     1.09300
C315        C  0.23267850  0.64241096  0.77801105     1.07000
H316        H  0.24473555  0.77408965  0.69999747     0.32600
O317        O  0.26340913  0.76389206  0.71367747    -1.29300
H318        H  0.27254137  0.69169555  0.81073899     0.32300
O319        O  0.28239251  0.70536355  0.79195461    -1.31000
O320        O  0.35336897  0.73048086  0.64116642    -0.86800
O321        O  0.37662931  0.76604677  0.83438314    -0.88300
O322        O  0.28333020  0.82806232  0.68133612    -0.86800
O323        O  0.31156113  0.63339989  0.70157508    -0.86900
O324        O  0.33424389  0.65011869  0.81390888    -0.86600
O325        O  0.30258158  0.84478981  0.79299719    -0.86400
O326        O  0.39562202  0.80398458  0.71824620    -0.86800
O327        O  0.41280226  0.69071878  0.74120004    -0.86200
O328        O  0.34822979  0.84107916  0.72181479    -0.87300
O329        O  0.37547232  0.64466635  0.75197790    -0.86500
O330        O  0.28559853  0.78045101  0.64435088    -0.86900
O331        O  0.31235477  0.80909979  0.83991956    -0.86600
O332        O  0.33355294  0.69833221  0.84997452    -0.86200
O333        O  0.30210236  0.66830861  0.65430058    -0.86600
O334        O  0.40064861  0.73986691  0.67738616    -0.86900
O335        O  0.41282407  0.76103396  0.78635091    -0.88300
Zr336      Zr  0.29891446  0.72793523  0.67762661     2.83100
Zr337      Zr  0.31666380  0.74967026  0.81704976     2.83500
Zr338      Zr  0.29754435  0.80793320  0.73980851     2.84100
Zr339      Zr  0.31663456  0.66904588  0.75555845     2.83400
Zr340      Zr  0.37742416  0.74525430  0.73645360     2.84200
O341        O  0.35116733  0.71305861  0.78117324    -1.08800
O342        O  0.33269755  0.77176488  0.70399643    -1.08300
C343        C  0.38684796  0.73487431  0.64699135     1.06300
C344        C  0.40666424  0.76847685  0.81858276     1.08900
C345        C  0.28039844  0.81325052  0.65114350     1.06500
C346        C  0.30699016  0.63791383  0.66832947     1.06800
C347        C  0.33923009  0.66556785  0.84357870     1.06400
C348        C  0.30763622  0.83955570  0.82609545     1.06000
C349        C  0.38048244  0.83403704  0.71437105     1.06400
C350        C  0.40632333  0.65766235  0.74653306     1.05900
H351        H  0.35692701  0.80111055  0.78139524     0.32600
O352        O  0.34269468  0.78230541  0.77203401    -1.29900
H353        H  0.35740053  0.68638406  0.69643663     0.32600
O354        O  0.34301666  0.70139783  0.71090284    -1.31300
C355        C  0.80160038  0.45470152  0.42532860     0.79900
N356        N  0.80532440  0.48558274  0.40856934    -0.78400
C357        C  0.80961457  0.51635858  0.42565140     0.82400
N358        N  0.80981486  0.51636452  0.46145668    -0.78300
C359        C  0.80690958  0.48541098  0.47960323     0.82500
N360        N  0.80309280  0.45453833  0.46114945    -0.80000
C361        C  0.95735869  0.51460763  0.17574400     0.79900
N362        N  0.98206974  0.51464709  0.15005588    -0.78400
C363        C  0.99143151  0.48429382  0.13370182     0.82400
N364        N  0.97666968  0.45356862  0.14443561    -0.78300
C365        C  0.95168722  0.45301739  0.16976145     0.82500
N366        N  0.94193186  0.48388706  0.18467222    -0.80000
C367        C  0.58960159  0.56207628  0.25160136     0.79900
N368        N  0.55893949  0.57858190  0.25814165    -0.78400
C369        C  0.52895980  0.56077638  0.26468590     0.82400
N370        N  0.52943474  0.52496485  0.26368148    -0.78300
C371        C  0.56020394  0.50732917  0.25771222     0.82500
N372        N  0.59044923  0.52616268  0.25204940    -0.80000
C373        C  0.59405321  0.83248478  0.11758103     0.79900
N374        N  0.59100531  0.85002818  0.08691485    -0.78400
C375        C  0.55878999  0.86029527  0.07536306     0.82400
N376        N  0.52988176  0.85161084  0.09426058    -0.78300
C377        C  0.53233828  0.83330036  0.12423152     0.82500
N378        N  0.56461785  0.82345906  0.13558755    -0.80000
O379        O  0.81540403  0.84157035  0.20508974    -0.86800
O380        O  0.78442140  0.64551265  0.18533142    -0.86900
O381        O  0.85634092  0.74409418  0.14521188    -0.88600
O382        O  0.74408550  0.76084042  0.16093576    -0.87400
O383        O  0.70639551  0.75734260  0.20784531    -0.86900
O384        O  0.90338628  0.73595899  0.18123774    -0.88300
O385        O  0.78580931  0.69322992  0.14859507    -0.86800
O386        O  0.80726691  0.80477937  0.15849779    -0.86400
Zr387      Zr  0.80267229  0.74511430  0.18129831     2.84300
O388        O  0.76789249  0.70837146  0.21648532    -1.08400
O389        O  0.84627263  0.77193359  0.21480842    -1.09100
C390        C  0.81173864  0.83566441  0.17186845     1.06300
C391        C  0.78007513  0.66062855  0.15546676     1.06300
C392        C  0.88983759  0.74158753  0.15074193     1.09300
C393        C  0.71366671  0.76400739  0.17559911     1.07000
H394        H  0.84728531  0.68698994  0.18865664     0.32600
O395        O  0.83676173  0.70095429  0.20702777    -1.29300
H396        H  0.76169113  0.79714506  0.21509453     0.32300
O397        O  0.77576486  0.77870784  0.22507837    -1.31000
O398        O  0.80529744  0.63080272  0.29915189    -0.86800
O399        O  0.83555725  0.82575262  0.31739037    -0.88300
O400        O  0.90119054  0.66924857  0.22820209    -0.86800
O401        O  0.70474898  0.68763080  0.25402311    -0.86900
O402        O  0.71998954  0.79938726  0.27643378    -0.86600
O403        O  0.91542271  0.78296069  0.24345406    -0.86400
O404        O  0.87650132  0.71054010  0.33921144    -0.86800
O405        O  0.76216124  0.73072737  0.35575903    -0.86200
O406        O  0.91421677  0.71428464  0.29222728    -0.87300
O407        O  0.71578495  0.73643322  0.31803054    -0.86500
O408        O  0.85443276  0.63101066  0.23053857    -0.86900
O409        O  0.87876528  0.82953397  0.25167124    -0.86600
O410        O  0.76769281  0.83677651  0.27632763    -0.86200
O411        O  0.74262552  0.64157651  0.24663323    -0.86600
O412        O  0.81309616  0.66861038  0.34518472    -0.86900
O413        O  0.83194578  0.77845271  0.35427235    -0.88300
Zr414      Zr  0.80193975  0.66505899  0.24372781     2.83100
Zr415      Zr  0.81983734  0.80539317  0.25858204     2.83500
Zr416      Zr  0.88032338  0.72854460  0.24067625     2.84100
Zr417      Zr  0.74020147  0.74163357  0.25943682     2.83400
Zr418      Zr  0.81724831  0.72676126  0.32045623     2.84200
O419        O  0.78348163  0.76959333  0.29332400    -1.08800
O420        O  0.84490330  0.69330513  0.27687851    -1.08300
C421        C  0.80881226  0.63766335  0.33236350     1.06300
C422        C  0.83819280  0.81101109  0.34765488     1.08900
C423        C  0.88723586  0.63842078  0.22552052     1.06500
C424        C  0.71155678  0.65449140  0.25029670     1.06800
C425        C  0.73506166  0.82925405  0.28157555     1.06400
C426        C  0.90956386  0.81629450  0.24639003     1.06000
C427        C  0.90698592  0.70776128  0.32446481     1.06400
C428        C  0.72866908  0.73318035  0.34898144     1.05900
H429        H  0.87243210  0.77218522  0.29879673     0.32600
O430        O  0.85389091  0.76180176  0.28494872    -1.29900
H431        H  0.75949784  0.68408800  0.30121424     0.32600
O432        O  0.77421649  0.69876889  0.28672939    -1.31300
C433        C  0.63306221  0.72763848  0.53002361     0.79900
N434        N  0.59704126  0.72818840  0.52997421    -0.78400
C435        C  0.57871155  0.73088584  0.49921971     0.82400
N436        N  0.59712627  0.73382201  0.46852662    -0.78300
C437        C  0.63317301  0.73450116  0.46866909     0.82500
N438        N  0.65048353  0.73119071  0.49940498    -0.80000
C439        C  0.89278194  0.87656181  0.53577541     0.79900
N440        N  0.91498855  0.90425565  0.53376992    -0.78400
C441        C  0.92456238  0.91781515  0.50236754     0.82400
N442        N  0.91061506  0.90365149  0.47289982    -0.78300
C443        C  0.88840522  0.87576344  0.47435451     0.82500
N444        N  0.87965969  0.86236833  0.50592793    -0.80000
C445        C  0.58420362  0.56106445  0.75338351     0.79900
N446        N  0.55247264  0.57705887  0.75171364    -0.78400
C447        C  0.52214447  0.55876232  0.74885233     0.82400
N448        N  0.52328348  0.52299498  0.74706687    -0.78300
C449        C  0.55500884  0.50601416  0.74832490     0.82500
N450        N  0.58519329  0.52531722  0.75164643    -0.80000
C451        C  0.52709625  0.83795373  0.87541007     0.79900
N452        N  0.52407396  0.85232009  0.90756831    -0.78400
C453        C  0.55274525  0.85880821  0.92745974     0.82400
N454        N  0.58516162  0.85115900  0.91439300    -0.78300
C455        C  0.58865615  0.83775996  0.88168209     0.82500
N456        N  0.55948078  0.83016555  0.86274547    -0.80000
C457        C  0.80438152  0.45396622  0.57290328     0.79900
N458        N  0.80356108  0.48492653  0.59044946    -0.78400
C459        C  0.80465437  0.51614892  0.57363999     0.82400
N460        N  0.80663725  0.51632857  0.53783438    -0.78300
C461        C  0.80691460  0.48537486  0.51920936     0.82500
N462        N  0.80584983  0.45426517  0.53716045    -0.80000
C463        C  0.95899298  0.51745799  0.82058528     0.79900
N464        N  0.94567603  0.48612130  0.81010287    -0.78400
C465        C  0.95755334  0.45594447  0.82439303     0.82400
N466        N  0.98251129  0.45729750  0.84942440    -0.78300
C467        C  0.99562878  0.48839379  0.86078330     0.82500
N468        N  0.98390876  0.51852569  0.84594276    -0.80000
O469        O  0.85212415  0.74080273  0.85831277    -0.86800
O470        O  0.87295536  0.71498218  0.66163519    -0.86900
O471        O  0.89517723  0.66931116  0.77586269    -0.88600
O472        O  0.91075554  0.78353825  0.76007073    -0.87400
O473        O  0.87353755  0.82997387  0.75155022    -0.86900
O474        O  0.84745944  0.63281304  0.77070283    -0.88300
O475        O  0.90920992  0.71638741  0.70978427    -0.86800
O476        O  0.89856814  0.73220613  0.82104483    -0.86400
Zr477      Zr  0.87528360  0.72877909  0.76172505     2.84300
O478        O  0.84850840  0.76269580  0.71854575    -1.08400
O479        O  0.83103424  0.70065127  0.79382407    -1.09100
C480        C  0.88546680  0.73639267  0.85187862     1.06300
C481        C  0.90294819  0.71135638  0.67705929     1.06300
C482        C  0.87996286  0.63896952  0.77803682     1.09300
C483        C  0.90434474  0.81680630  0.75650171     1.07000
H484        H  0.85405577  0.67546133  0.71420754     0.32600
O485        O  0.83987800  0.69361107  0.72479413    -1.29300
H486        H  0.85587035  0.78616880  0.80397788     0.32300
O487        O  0.84133883  0.77173176  0.78902303    -1.31000
O488        O  0.75868531  0.72931386  0.64587157    -0.86800
O489        O  0.73912632  0.76237268  0.84122528    -0.88300
O490        O  0.79925784  0.63130166  0.70130188    -0.86800
O491        O  0.83161479  0.82689416  0.68816027    -0.86900
O492        O  0.81012453  0.84009436  0.80078960    -0.86600
O493        O  0.78057877  0.64437856  0.81459671    -0.86400
O494        O  0.69910921  0.69150632  0.74772502    -0.86800
O495        O  0.71435846  0.80401098  0.73351201    -0.86200
O496        O  0.73511208  0.64415480  0.75389431    -0.87300
O497        O  0.76213712  0.84053119  0.73564327    -0.86500
O498        O  0.81086362  0.66894234  0.65615388    -0.86900
O499        O  0.78314011  0.69066065  0.85326586    -0.86600
O500        O  0.80145618  0.80275762  0.84660523    -0.86200
O501        O  0.82892792  0.78037375  0.64976955    -0.86600
O502        O  0.71210565  0.73932808  0.68259277    -0.86900
O503        O  0.70333407  0.76241774  0.79287063    -0.88300
Zr504      Zr  0.81322487  0.72788016  0.68146691     2.83100
Zr505      Zr  0.79779326  0.74390752  0.82197273     2.83500
Zr506      Zr  0.79529495  0.66623588  0.75654466     2.84100
Zr507      Zr  0.81466671  0.80598855  0.74592377     2.83400
Zr508      Zr  0.73575922  0.74425396  0.74165550     2.84200
O509        O  0.77150928  0.77801949  0.77854416    -1.08800
O510        O  0.76883847  0.70074214  0.71382652    -1.08300
C511        C  0.72534201  0.73381056  0.65200441     1.06300
C512        C  0.70980924  0.76869651  0.82533712     1.08900
C513        C  0.80547529  0.63789733  0.66847835     1.06500
C514        C  0.83498693  0.81270083  0.65767555     1.06800
C515        C  0.80566803  0.83370657  0.83383122     1.06400
C516        C  0.77765679  0.65818806  0.84531825     1.06000
C517        C  0.70429948  0.65826036  0.75168537     1.06400
C518        C  0.72883343  0.83473638  0.73305362     1.05900
H519        H  0.74334539  0.69944681  0.79845633     0.32600
O520        O  0.76184145  0.70975091  0.78477176    -1.29900
H521        H  0.76872603  0.78647376  0.69047294     0.32600
O522        O  0.77931046  0.77188129  0.70815953    -1.31300
C523        C  0.52858172  0.41420764  0.25322853     0.79900
N524        N  0.52903361  0.45001218  0.25468927    -0.78400
C525        C  0.56027873  0.46798532  0.25685972     0.82400
N526        N  0.59126195  0.44954862  0.25745236    -0.78300
C527        C  0.59075622  0.41367649  0.25630538     0.82500
N528        N  0.55955031  0.39681405  0.25403443    -0.80000
C529        C  0.58902423  0.12918293  0.11579140     0.79900
N530        N  0.58785853  0.10902110  0.08662100    -0.78400
C531        C  0.55649110  0.09869348  0.07289818     0.82400
N532        N  0.52620504  0.11042512  0.08802688    -0.78300
C533        C  0.52723531  0.13107614  0.11694571     0.82500
N534        N  0.55873647  0.14066840  0.13044779    -0.80000
O535        O  0.85195781  0.22844855  0.14363784    -0.86800
O536        O  0.87424316  0.25711207  0.33734517    -0.86900
O537        O  0.89288906  0.30038041  0.22372762    -0.88600
O538        O  0.90999533  0.18562994  0.24160853    -0.87400
O539        O  0.87364860  0.13888350  0.25046221    -0.86900
O540        O  0.84536929  0.33722340  0.22811532    -0.88300
O541        O  0.91019077  0.25306830  0.28932152    -0.86800
O542        O  0.89843132  0.23700846  0.18078688    -0.86400
Zr543      Zr  0.87450954  0.24054463  0.23910252     2.84300
O544        O  0.84847830  0.20700309  0.28289082    -1.08400
O545        O  0.83015534  0.26767886  0.20673901    -1.09100
C546        C  0.88544589  0.23244805  0.15012840     1.06300
C547        C  0.90452043  0.25948492  0.32178303     1.06300
C548        C  0.87795572  0.33084747  0.22195345     1.09300
C549        C  0.90447180  0.15209002  0.24550353     1.07000
H550        H  0.85384405  0.29525988  0.28558404     0.32600
O551        O  0.83969786  0.27683019  0.27536721    -1.29300
H552        H  0.85533755  0.18248673  0.19755368     0.32300
O553        O  0.84077033  0.19697127  0.21237432    -1.31000
O554        O  0.75944618  0.23928957  0.35560893    -0.86800
O555        O  0.73775717  0.20412146  0.16176559    -0.88300
O556        O  0.79713641  0.33899578  0.29763091    -0.86800
O557        O  0.83154407  0.14386262  0.31484844    -0.86900
O558        O  0.80935968  0.12791580  0.20160031    -0.86600
O559        O  0.78125976  0.32333595  0.18426463    -0.86400
O560        O  0.69854785  0.27954130  0.25589587    -0.86800
O561        O  0.71500407  0.16635506  0.27462884    -0.86200
O562        O  0.73581939  0.32643177  0.24872976    -0.87300
O563        O  0.76255538  0.12941330  0.27028058    -0.86500
O564        O  0.80671442  0.30154805  0.34303741    -0.86900
O565        O  0.78247088  0.27612147  0.14671544    -0.99800
O566        O  0.80106848  0.16522593  0.15531404    -0.86200
O567        O  0.82996657  0.19152986  0.35192482    -0.86600
O568        O  0.71195921  0.23226754  0.31923264    -0.86900
O569        O  0.70122573  0.20516892  0.20970216    -0.88300
Zr570      Zr  0.81352430  0.24279337  0.31912163     2.83100
Zr571      Zr  0.79683142  0.22401791  0.17947318     2.83500
Zr572      Zr  0.79460859  0.30285016  0.24312570     2.84100
Zr573      Zr  0.81460321  0.16314955  0.25615236     2.83400
Zr574      Zr  0.73471922  0.22548554  0.25990736     2.84200
O575        O  0.77070008  0.19067574  0.22377591    -1.08800
O576        O  0.76882286  0.26888894  0.28657188    -1.08300
C577        C  0.72581917  0.23656186  0.34973175     1.06300
C578        C  0.70804422  0.19832481  0.17735919     1.08900
C579        C  0.80158574  0.33250670  0.33073108     1.06500
C580        C  0.83559730  0.15897804  0.34489021     1.06800
C581        C  0.80519839  0.13446398  0.16855107     1.06400
C582        C  0.77795138  0.30887913  0.15388732     1.06000
C583        C  0.70502817  0.31287295  0.25260418     1.06400
C584        C  0.72989310  0.13600226  0.27663813     1.05900
H585        H  0.74182745  0.26942347  0.20192012     0.32600
O586        O  0.76043898  0.25917337  0.21564176    -1.29900
H587        H  0.76945226  0.18476744  0.31121416     0.32600
O588        O  0.77947803  0.19877446  0.29282428    -1.31300
C589        C  0.52797199  0.41174111  0.74245386     0.79900
N590        N  0.52672007  0.44733781  0.74585028    -0.78400
C591        C  0.55687777  0.46694999  0.74495257     0.82400
N592        N  0.58862902  0.45035185  0.74087303    -0.78300
C593        C  0.58988202  0.41472132  0.73669038     0.82500
N594        N  0.55961973  0.39625288  0.73796726    -0.80000
C595        C  0.53022355  0.15001610  0.88801709     0.79900
N596        N  0.56215817  0.15982944  0.87579929    -0.78400
C597        C  0.59179652  0.14798727  0.89143848     0.82400
N598        N  0.58940099  0.12662922  0.91966478    -0.78300
C599        C  0.55728649  0.11659779  0.93206869     0.82500
N600        N  0.52803510  0.12894272  0.91619540    -0.80000
C601        C  0.63117606  0.24035845  0.53300331     0.79900
N602        N  0.59520230  0.23816475  0.53220365    -0.78400
C603        C  0.57769303  0.23546699  0.50092333     0.82400
N604        N  0.59683682  0.23403841  0.47057931    -0.78300
C605        C  0.63281183  0.23495733  0.47145387     0.82500
N606        N  0.64925848  0.23862505  0.50259889    -0.80000
C607        C  0.89067144  0.09963769  0.47011449     0.79900
N608        N  0.87674531  0.11291566  0.49990259    -0.78400
C609        C  0.88658880  0.09977811  0.53118124     0.82400
N610        N  0.90955990  0.07281377  0.53265401    -0.78300
C611        C  0.92371518  0.05922244  0.50311166     0.82500
N612        N  0.91383670  0.07276582  0.47182356    -0.80000
O613        O  0.85752065  0.23155852  0.85560091    -0.86800
O614        O  0.87127085  0.26126686  0.66136055    -0.86900
O615        O  0.91227341  0.18893561  0.75626087    -0.88600
O616        O  0.89981101  0.30269765  0.77296548    -0.87400
O617        O  0.85313895  0.34112952  0.77202577    -0.86900
O618        O  0.87435106  0.14295298  0.74752188    -0.88300
O619        O  0.90995849  0.25760724  0.70745754    -0.86800
O620        O  0.90323558  0.23852385  0.81757556    -0.86400
Zr621      Zr  0.87762674  0.24409593  0.75984772     2.84300
O622        O  0.84173943  0.28032601  0.72511707    -1.08400
O623        O  0.84394684  0.20154924  0.78780204    -1.09100
C624        C  0.89089238  0.23440117  0.84858525     1.06300
C625        C  0.90219779  0.26328027  0.67525944     1.06300
C626        C  0.90546990  0.15576208  0.75176219     1.09300
C627        C  0.88587649  0.33338216  0.77623868     1.07000
H628        H  0.86704140  0.20043784  0.70243738     0.32600
O629        O  0.84919008  0.21118453  0.71685206    -1.29300
H630        H  0.84684521  0.28652115  0.81260407     0.32300
O631        O  0.83556265  0.27265652  0.79466271    -1.31000
O632        O  0.75687543  0.24378888  0.64830212    -0.86800
O633        O  0.74264673  0.21536243  0.84349645    -0.88300
O634        O  0.82789242  0.14696387  0.68557736    -0.86800
O635        O  0.80191526  0.34348915  0.70453466    -0.86900
O636        O  0.78485416  0.32851093  0.81902236    -0.86600
O637        O  0.81537822  0.13339833  0.80028399    -0.86400
O638        O  0.71468146  0.17139190  0.73727197    -0.86800
O639        O  0.70302069  0.28834783  0.74603102    -0.86200
O640        O  0.76248023  0.13527348  0.73581393    -0.87300
O641        O  0.74156082  0.33392119  0.75421782    -0.86500
O642        O  0.82444394  0.19479478  0.64938549    -0.86900
O643        O  0.80665914  0.17091183  0.84648627    -0.86600
O644        O  0.78902728  0.28160765  0.85647975    -0.86200
O645        O  0.80871219  0.30586822  0.65816307    -0.86600
O646        O  0.71124228  0.23371462  0.68612408    -0.86900
O647        O  0.70390941  0.21970505  0.79749519    -0.88300
Zr648      Zr  0.81229806  0.24704361  0.68260339     2.83100
Zr649      Zr  0.80173990  0.22972000  0.82221705     2.83500
Zr650      Zr  0.81569991  0.16811578  0.74505629     2.84100
Zr651      Zr  0.79968251  0.30861690  0.75956409     2.83400
Zr652      Zr  0.73651129  0.23200959  0.74482412     2.84200
O653        O  0.76542453  0.26567639  0.78752240    -1.08800
O654        O  0.77884203  0.20359340  0.71021007    -1.08300
C655        C  0.72375026  0.23852562  0.65513108     1.06300
C656        C  0.71184299  0.21262025  0.82938912     1.08900
C657        C  0.83057088  0.16217799  0.65551809     1.06500
C658        C  0.80471532  0.33685042  0.67126352     1.06800
C659        C  0.78264642  0.31400141  0.84950841     1.06400
C660        C  0.81141593  0.14002300  0.83344610     1.06000
C661        C  0.72920665  0.14066435  0.73501933     1.06400
C662        C  0.71041014  0.32164955  0.74916377     1.05900
H663        H  0.75958674  0.17819785  0.79045714     0.32600
O664        O  0.77334978  0.19624501  0.77926322    -1.29900
H665        H  0.75600160  0.28937118  0.70282828     0.32600
O666        O  0.77061572  0.27480527  0.71735917    -1.31300
O667        O  0.26352495  0.22873791  0.14017884    -0.86800
O668        O  0.24213660  0.26550139  0.33303369    -0.86900
O669        O  0.20418445  0.19013898  0.24100409    -0.88600
O670        O  0.22010734  0.30231669  0.21697289    -0.87400
O671        O  0.26721412  0.34001529  0.22143289    -0.86900
O672        O  0.24132182  0.14352489  0.24952865    -0.88300
O673        O  0.20621098  0.26178373  0.28519785    -0.86800
O674        O  0.21629093  0.23614740  0.17663055    -0.86400
Zr675      Zr  0.24010734  0.24400392  0.23481759     2.84300
O676        O  0.27487883  0.28013863  0.27080241    -1.08400
O677        O  0.27425990  0.19982905  0.20962416    -1.09100
C678        C  0.22985159  0.23152244  0.14615898     1.06300
C679        C  0.21221999  0.26938080  0.31740278     1.06300
C680        C  0.21056013  0.15705739  0.24576113     1.09300
C681        C  0.23481150  0.33280617  0.21410425     1.07000
H682        H  0.24688375  0.20122310  0.29322590     0.32600
O683        O  0.26566470  0.21119115  0.27944602    -1.29300
H684        H  0.27478228  0.28414980  0.18271928     0.32300
O685        O  0.28463725  0.27055207  0.20158755    -1.31000
O686        O  0.35480964  0.24287616  0.35108098    -0.86800
O687        O  0.37755896  0.20727517  0.15821223    -0.88300
O688        O  0.28444329  0.14731422  0.31327918    -0.86800
O689        O  0.31318503  0.34312648  0.29225205    -0.86900
O690        O  0.33718777  0.32558307  0.17986328    -0.86600
O691        O  0.30379568  0.13058752  0.20052641    -0.86400
O692        O  0.39999537  0.17080588  0.26950322    -0.86800
O693        O  0.41591154  0.28357371  0.25063644    -0.86200
O694        O  0.35257405  0.13333374  0.26731896    -0.87300
O695        O  0.37892376  0.33017494  0.24224678    -0.86500
O696        O  0.28393723  0.19595642  0.34884733    -0.86900
O697        O  0.31231932  0.16680381  0.15341248    -0.86600
O698        O  0.33676734  0.27744683  0.14329219    -0.86200
O699        O  0.30574381  0.30598051  0.33880428    -0.86600
O700        O  0.40251411  0.23465961  0.31597544    -0.86900
O701        O  0.41381882  0.21367346  0.20579875    -0.88300
Zr702      Zr  0.30108785  0.24701910  0.31510620     2.83100
Zr703      Zr  0.31834541  0.22617038  0.17609550     2.83500
Zr704      Zr  0.30026178  0.16700056  0.25421408     2.84100
Zr705      Zr  0.31916417  0.30696399  0.23814126     2.83400
Zr706      Zr  0.37957925  0.23001074  0.25645070     2.84200
O707        O  0.35312208  0.26262723  0.21216265    -1.08800
O708        O  0.33564754  0.20291266  0.29007077    -1.08300
C709        C  0.38833824  0.23897665  0.34640251     1.06300
C710        C  0.40750956  0.20424220  0.17402736     1.08900
C711        C  0.27922570  0.16291591  0.34292072     1.06500
C712        C  0.30914994  0.33679985  0.32542801     1.06800
C713        C  0.34225121  0.31016438  0.15018780     1.06400
C714        C  0.30761086  0.13638328  0.16731610     1.06000
C715        C  0.38543344  0.14027704  0.27221090     1.06400
C716        C  0.40986636  0.31672193  0.24604833     1.05900
H717        H  0.35803294  0.17473940  0.21150226     0.32600
O718        O  0.34416370  0.19358307  0.22114779    -1.29900
H719        H  0.35986097  0.28865328  0.29688667     0.32600
O720        O  0.34538999  0.27384790  0.28224295    -1.31300
C721        C  0.84797623  0.09597687  0.58279296    -0.06100
C722        C  0.87289322  0.11496220  0.56345714    -0.00100
C723        C  0.88515514  0.14771293  0.57543701    -0.08700
C724        C  0.87156032  0.16087513  0.60667733    -0.06100
C725        C  0.84544552  0.14288712  0.62557410    -0.00100
C726        C  0.83355139  0.10967694  0.61384121    -0.08600
C727        C  0.80571725  0.08916904  0.63346073     0.61800
H728        H  0.83962002  0.07057930  0.57306596     0.12500
H729        H  0.88077529  0.18602722  0.61630876     0.12500
C730        C  0.91224866  0.16874463  0.55507646     0.62000
F731        F  0.79511636  0.05956697  0.61520242    -0.23200
F732        F  0.77639631  0.10987391  0.63910651    -0.20500
F733        F  0.81928928  0.07852444  0.66510390    -0.20200
F734        F  0.89820814  0.17865267  0.52332026    -0.20200
F735        F  0.94195077  0.14862639  0.54933615    -0.20500
F736        F  0.92238568  0.19885702  0.57271939    -0.23200
C737        C  0.64880247  0.21554442  0.59077328    -0.06100
C738        C  0.65175220  0.24276979  0.56635810    -0.00100
C739        C  0.67752804  0.26929869  0.57209091    -0.08700
C740        C  0.70012332  0.26692840  0.60133192    -0.06100
C741        C  0.69798882  0.23913921  0.62525855    -0.00100
C742        C  0.67154710  0.21304138  0.62001689    -0.08600
C743        C  0.66833017  0.18162958  0.64408935     0.61800
H744        H  0.62932330  0.19534207  0.58592144     0.12500
H745        H  0.72007236  0.28683143  0.60556110     0.12500
C746        C  0.68142305  0.30015249  0.54738070     0.62000
F747        F  0.64401573  0.15742551  0.63189390    -0.23200
F748        F  0.65749993  0.19248598  0.67681869    -0.20500
F749        F  0.70049443  0.16492698  0.64669559    -0.20200
F750        F  0.64872236  0.31394840  0.53962257    -0.20200
F751        F  0.69760905  0.28931102  0.51687824    -0.20500
F752        F  0.70159631  0.32672840  0.56192854    -0.23200
C753        C  0.63623978  0.19485392  0.89141421    -0.06100
C754        C  0.62590275  0.16148404  0.87959451    -0.00100
C755        C  0.64533074  0.14434798  0.85318287    -0.08700
C756        C  0.67348046  0.16230060  0.83784695    -0.06100
C757        C  0.68378374  0.19564909  0.84942984    -0.00100
C758        C  0.66526641  0.21233112  0.87664774    -0.08600
C759        C  0.67451328  0.24928760  0.88771636     0.61800
H760        H  0.62051454  0.20763685  0.91131510     0.12500
H761        H  0.68730413  0.15072332  0.81593936     0.12500
C762        C  0.63634240  0.10745555  0.84119005     0.62000
F763        F  0.65146931  0.26195050  0.91273357    -0.23200
F764        F  0.67291165  0.27093871  0.85888871    -0.20500
F765        F  0.70817698  0.25014232  0.90137228    -0.20200
F766        F  0.60253208  0.10640950  0.82805022    -0.20200
F767        F  0.63876757  0.08482975  0.86921215    -0.20500
F768        F  0.65905326  0.09573460  0.81535504    -0.23200
C769        C  0.65030355  0.40276803  0.75856318    -0.06100
C770        C  0.62349949  0.39452233  0.73484190    -0.00100
C771        C  0.62716049  0.36402126  0.71357357    -0.08700
C772        C  0.65562395  0.34112806  0.71948001    -0.06100
C773        C  0.68138466  0.34804988  0.74484170    -0.00100
C774        C  0.67945369  0.38040096  0.76379132    -0.08600
C775        C  0.70676770  0.39087198  0.79082809     0.61800
H776        H  0.64737883  0.42629475  0.77419840     0.12500
H777        H  0.65792973  0.31736415  0.70407079     0.12500
C778        C  0.60159045  0.35561819  0.68415783     0.62000
F779        F  0.69721837  0.42080026  0.80907143    -0.23200
F780        F  0.71063954  0.36413380  0.81460821    -0.20500
F781        F  0.73867272  0.39762522  0.77486695    -0.20200
F782        F  0.59407744  0.38571462  0.66552539    -0.20200
F783        F  0.57081074  0.34170115  0.69751155    -0.20500
F784        F  0.61555401  0.33137194  0.66100472    -0.23200
C785        C  0.70676353  0.21281707  0.40722008    -0.06100
C786        C  0.70108311  0.23696624  0.38033299    -0.00100
C787        C  0.67145629  0.25962906  0.38274728    -0.08700
C788        C  0.64885982  0.25721271  0.41213048    -0.06100
C789        C  0.65486582  0.23306476  0.43909518    -0.00100
C790        C  0.68397004  0.20982093  0.43615582    -0.08600
C791        C  0.69036902  0.18080749  0.46259327     0.61800
H792        H  0.72919974  0.19579688  0.40516520     0.12500
H793        H  0.62669077  0.27482826  0.41468862     0.12500
C794        C  0.66441686  0.28722493  0.35517317     0.62000
F795        F  0.71628020  0.15784353  0.45152727    -0.23200
F796        F  0.65978430  0.16166466  0.46737673    -0.20500
F797        F  0.70107486  0.19481689  0.49416130    -0.20200
F798        F  0.65366938  0.27121827  0.32454996    -0.20200
F799        F  0.69468583  0.30644931  0.34899111    -0.20500
F800        F  0.63833786  0.31036135  0.36549948    -0.23200
C801        C  0.88570673  0.13899252  0.37950588    -0.06100
C802        C  0.84928277  0.13829507  0.37399911    -0.00100
C803        C  0.82671318  0.12383168  0.39944569    -0.08700
C804        C  0.84142579  0.11072015  0.43029528    -0.06100
C805        C  0.87781210  0.11198572  0.43617241    -0.00100
C806        C  0.90053221  0.12610489  0.41049418    -0.08600
C807        C  0.93985961  0.12928464  0.41661542     0.61800
H808        H  0.90227824  0.15110217  0.35988983     0.12500
H809        H  0.82456275  0.09987451  0.45039029     0.12500
C810        C  0.78727964  0.12360302  0.39427323     0.62000
F811        F  0.95645246  0.14736618  0.38995673    -0.23200
F812        F  0.95464904  0.09627433  0.41850462    -0.20500
F813        F  0.94605974  0.14711518  0.44753680    -0.20200
F814        F  0.77899688  0.10482195  0.36442683    -0.20200
F815        F  0.77580384  0.15765155  0.39070315    -0.20500
F816        F  0.76968860  0.10868122  0.42221237    -0.23200
C817        C  0.52307501  0.08454531  0.01930731    -0.06100
C818        C  0.55521130  0.08310175  0.03721731    -0.00100
C819        C  0.58614137  0.07744923  0.01744714    -0.08700
C820        C  0.58577073  0.08650242  0.98202869    -0.06100
C821        C  0.55442842  0.09670071  0.96540567    -0.00100
C822        C  0.52194538  0.09051813  0.98316672    -0.08600
C823        C  0.48602804  0.09264164  0.96584948     0.61800
H824        H  0.49879884  0.08512378  0.03412275     0.12500
H825        H  0.61041330  0.08662429  0.96776408     0.12500
C826        C  0.61964278  0.06235771  0.03250606     0.62000
F827        F  0.46045985  0.07624328  0.98580674    -0.23200
F828        F  0.48664217  0.07588143  0.93374791    -0.20500
F829        F  0.47631889  0.12733547  0.96182211    -0.20200
F830        F  0.61431019  0.04829842  0.06534966    -0.20200
F831        F  0.64523769  0.08813075  0.03429233    -0.20500
F832        F  0.63148348  0.03558105  0.01103562    -0.23200
C833        C  0.45535991  0.16157449  0.17817722    -0.06100
C834        C  0.43649755  0.18485170  0.15680744    -0.00100
C835        C  0.44634750  0.18879407  0.12138634    -0.08700
C836        C  0.47524176  0.16926634  0.10876583    -0.06100
C837        C  0.49485598  0.14723776  0.13079781    -0.00100
C838        C  0.48481293  0.14325307  0.16607408    -0.08600
C839        C  0.50537387  0.12032242  0.19116889     0.61800
H840        H  0.44722401  0.15835863  0.20509690     0.12500
H841        H  0.48354409  0.17199708  0.08184305     0.12500
C842        C  0.42751889  0.21431320  0.09754830     0.62000
F843        F  0.48799963  0.11610875  0.22269528    -0.23200
F844        F  0.53762260  0.13565576  0.19803624    -0.20500
F845        F  0.51043195  0.08741510  0.17674421    -0.20200
F846        F  0.44536335  0.21887155  0.06635978    -0.20200
F847        F  0.42484136  0.24676198  0.11361176    -0.20500
F848        F  0.39419696  0.20177967  0.09005090    -0.23200
C849        C  0.66949853  0.14667861  0.17088881    -0.06100
C850        C  0.68003903  0.17958474  0.15793733    -0.00100
C851        C  0.66271442  0.19381069  0.12852173    -0.08700
C852        C  0.63399350  0.17540005  0.11421556    -0.06100
C853        C  0.62256160  0.14352902  0.12834378    -0.00100
C854        C  0.64107089  0.12813083  0.15620590    -0.08600
C855        C  0.63052123  0.09241183  0.17015393     0.61800
H856        H  0.68344368  0.13585578  0.19303655     0.12500
H857        H  0.61921782  0.18642875  0.09272071     0.12500
C858        C  0.67296578  0.22911248  0.11368724     0.62000
F859        F  0.65313952  0.08104302  0.19604986    -0.23200
F860        F  0.63109143  0.06808646  0.14327414    -0.20500
F861        F  0.59692247  0.09386873  0.18390731    -0.20200
F862        F  0.70782710  0.22870155  0.10345088    -0.20200
F863        F  0.66812963  0.25465687  0.13885966    -0.20500
F864        F  0.65281157  0.23771427  0.08486813    -0.23200
C865        C  0.49906547  0.36122441  0.22955232    -0.06100
C866        C  0.49571730  0.39265843  0.24879244    -0.00100
C867        C  0.46329286  0.39948216  0.26590583    -0.08700
C868        C  0.43596758  0.37426740  0.26353728    -0.06100
C869        C  0.44023008  0.34194321  0.24601968    -0.00100
C870        C  0.47247582  0.33541912  0.22845569    -0.08600
C871        C  0.47955058  0.30127743  0.20909269     0.61800
H872        H  0.52369467  0.35626430  0.21622049     0.12500
H873        H  0.41114222  0.37914534  0.27654356     0.12500
C874        C  0.45781782  0.43221778  0.28787569     0.62000
F875        F  0.51054641  0.30264348  0.19005781    -0.23200
F876        F  0.45248560  0.29405882  0.18605692    -0.20500
F877        F  0.48250370  0.27422852  0.23284826    -0.20200
F878        F  0.45930686  0.46161039  0.26688175    -0.20200
F879        F  0.48360417  0.43437738  0.31326216    -0.20500
F880        F  0.42545546  0.43204937  0.30453339    -0.23200
C881        C  0.67358396  0.36251013  0.28102366    -0.06100
C882        C  0.67538212  0.33829268  0.25329230    -0.00100
C883        C  0.65134449  0.34127390  0.22530908    -0.08700
C884        C  0.62552070  0.36775007  0.22655884    -0.06100
C885        C  0.62304703  0.39154667  0.25464750    -0.00100
C886        C  0.64730195  0.38870202  0.28257992    -0.08600
C887        C  0.64449738  0.41211828  0.31449593     0.61800
H888        H  0.69279984  0.36041390  0.30177497     0.12500
H889        H  0.60644529  0.36975710  0.20565900     0.12500
C890        C  0.65368436  0.31713869  0.19385640     0.62000
F891        F  0.66902015  0.40333205  0.33966508    -0.23200
F892        F  0.61145641  0.40874981  0.32925425    -0.20500
F893        F  0.64996007  0.44666316  0.30500700    -0.20200
F894        F  0.64952742  0.28270422  0.20428567    -0.20200
F895        F  0.68620239  0.32110304  0.17811177    -0.20500
F896        F  0.62800482  0.32440494  0.16931763    -0.23200
C897        C  0.93960210  0.41635339  0.77684347    -0.06100
C898        C  0.94298284  0.42206640  0.81291704    -0.00100
C899        C  0.93033377  0.39664745  0.83687640    -0.08700
C900        C  0.91333666  0.36677972  0.82352465    -0.06100
C901        C  0.90867446  0.36206715  0.78757577    -0.00100
C902        C  0.92244884  0.38651895  0.76370837    -0.08600
C903        C  0.91841330  0.38107435  0.72470063     0.61800
H904        H  0.94980887  0.43592050  0.75903804     0.12500
H905        H  0.90237251  0.34737647  0.84107393     0.12500
C906        C  0.93289120  0.40177122  0.87621015     0.62000
F907        F  0.93529268  0.40707027  0.70587873    -0.23200
F908        F  0.88313947  0.38133237  0.71585067    -0.20500
F909        F  0.93279235  0.34910882  0.71534229    -0.20200
F910        F  0.91823124  0.43363803  0.88557262    -0.20200
F911        F  0.96770379  0.40092611  0.88652324    -0.20500
F912        F  0.91532025  0.37571153  0.89430702    -0.23200
C913        C  0.90601817  0.55273094  0.82034505    -0.06100
C914        C  0.94100817  0.54969268  0.80987333    -0.00100
C915        C  0.95707079  0.57671916  0.79030356    -0.08700
C916        C  0.93661094  0.60607830  0.78097161    -0.06100
C917        C  0.90088711  0.60859299  0.79045361    -0.00100
C918        C  0.88568327  0.58188368  0.81164693    -0.08600
C919        C  0.84864698  0.58417592  0.82647713     0.61800
H920        H  0.89462724  0.53172241  0.83568604     0.12500
H921        H  0.94802901  0.62666909  0.76515507     0.12500
C922        C  0.99471758  0.57341594  0.77755857     0.62000
F923        F  0.84299491  0.55997188  0.85279004    -0.23200
F924        F  0.82419066  0.57773166  0.80049651    -0.20500
F925        F  0.84343110  0.61706407  0.84070125    -0.20200
F926        F  0.99712153  0.54537239  0.75468697    -0.20200
F927        F  0.01715967  0.56791436  0.80534990    -0.20500
F928        F  0.00586607  0.60335551  0.76042752    -0.23200
C929        C  0.77594833  0.41810961  0.61933171    -0.06100
C930        C  0.80266962  0.42083051  0.59399205    -0.00100
C931        C  0.82921349  0.39475543  0.59319977    -0.08700
C932        C  0.82917001  0.36822529  0.61910517    -0.06100
C933        C  0.80332443  0.36656529  0.64553577    -0.00100
C934        C  0.77536083  0.39117360  0.64464880    -0.08600
C935        C  0.74428121  0.38832953  0.66942779     0.61800
H936        H  0.75532864  0.43760373  0.61919749     0.12500
H937        H  0.84959935  0.34847766  0.61900499     0.12500
C938        C  0.85757399  0.39507839  0.56531274     0.62000
F939        F  0.71810951  0.41221895  0.66150428    -0.23200
F940        F  0.75519576  0.39473594  0.70323040    -0.20500
F941        F  0.72982938  0.35504678  0.66729709    -0.20200
F942        F  0.87459274  0.42717906  0.56506362    -0.20200
F943        F  0.84237464  0.38915246  0.53301522    -0.20500
F944        F  0.88256291  0.36933646  0.57086757    -0.23200
C945        C  0.83104681  0.57319957  0.59441149    -0.06100
C946        C  0.80291342  0.54921951  0.59530361    -0.00100
C947        C  0.77533069  0.55523500  0.61980615    -0.08700
C948        C  0.77737722  0.58412369  0.64305205    -0.06100
C949        C  0.80569773  0.60778223  0.64269947    -0.00100
C950        C  0.83303064  0.60228474  0.61768034    -0.08600
C951        C  0.86510310  0.62600490  0.61664121     0.61800
H952        H  0.85210882  0.56835226  0.57596913     0.12500
H953        H  0.75665343  0.58836053  0.66202811     0.12500
C954        C  0.74374878  0.53095782  0.62205699     0.62000
F955        F  0.89137315  0.61261710  0.59538866    -0.23200
F956        F  0.87870021  0.62955492  0.64990537    -0.20500
F957        F  0.85582029  0.65860376  0.60398837    -0.20200
F958        F  0.75313335  0.50076626  0.63950846    -0.20200
F959        F  0.73180847  0.52244763  0.58896578    -0.20500
F960        F  0.71616689  0.54639775  0.64000612    -0.23200
C961        C  0.63763845  0.79625282  0.88874021    -0.06100
C962        C  0.62281820  0.82410200  0.86986932    -0.00100
C963        C  0.63881688  0.83558988  0.83863918    -0.08700
C964        C  0.66853087  0.81764698  0.82650205    -0.06100
C965        C  0.68188395  0.78811132  0.84386564    -0.00100
C966        C  0.66688284  0.77753414  0.87595364    -0.08600
C967        C  0.68023576  0.74566033  0.89540852     0.61800
H968        H  0.62486140  0.78806765  0.91266943     0.12500
H969        H  0.68085425  0.82573861  0.80229250     0.12500
C970        C  0.62419947  0.86600997  0.81771368     0.62000
F971        F  0.65983140  0.73827649  0.92445722    -0.23200
F972        F  0.71434959  0.75148706  0.90652134    -0.20500
F973        F  0.67946906  0.71667187  0.87361870    -0.20200
F974        F  0.61908081  0.89472297  0.83926053    -0.20200
F975        F  0.59250462  0.85640795  0.80277364    -0.20500
F976        F  0.64684234  0.87599080  0.79118656    -0.23200
C977        C  0.61128276  0.61974633  0.76386780    -0.06100
C978        C  0.61658948  0.58394854  0.75579479    -0.00100
C979        C  0.65137776  0.57278127  0.74791849    -0.08700
C980        C  0.67880294  0.59787532  0.74784728    -0.06100
C981        C  0.67304401  0.63396802  0.75387675    -0.00100
C982        C  0.63825365  0.64511189  0.76211900    -0.08600
C983        C  0.62870024  0.68343761  0.76855989     0.61800
H984        H  0.58505688  0.62829290  0.77067393     0.12500
H985        H  0.70523893  0.58936458  0.74177705     0.12500
C986        C  0.65987759  0.53509633  0.73805623     0.62000
F987        F  0.59366173  0.68761868  0.77759550    -0.23200
F988        F  0.63428381  0.70265328  0.73847084    -0.20500
F989        F  0.64875621  0.69701649  0.79555529    -0.20200
F990        F  0.64069127  0.52550871  0.70885244    -0.20200
F991        F  0.65198078  0.51299747  0.76556134    -0.20500
F992        F  0.69511917  0.53062538  0.73009707    -0.23200
C993        C  0.94801267  0.96969156  0.53339762    -0.06100
C994        C  0.94319235  0.95219063  0.50137685    -0.00100
C995        C  0.94903700  0.97132597  0.47014177    -0.08700
C996        C  0.94826734  0.00801340  0.47206416    -0.06100
C997        C  0.94300846  0.02539807  0.50407281    -0.00100
C998        C  0.94860969  0.00634207  0.53537946    -0.08600
C999        C  0.95081221  0.02309592  0.57133171     0.61800
H1000       H  0.94735426  0.95500357  0.55748877     0.12500
H1001       H  0.94783771  0.02278639  0.44794818     0.12500
C1002       C  0.95207897  0.95459666  0.43431992     0.62000
F1003       F  0.97013616  0.00225736  0.59379716    -0.23200
F1004       F  0.91738819  0.02695877  0.58514653    -0.20500
F1005       F  0.96740620  0.05537815  0.56964342    -0.20200
F1006       F  0.91908328  0.95196542  0.41928997    -0.20200
F1007       F  0.96733867  0.92178564  0.43642280    -0.20500
F1008       F  0.97319501  0.97486006  0.41282926    -0.23200
C1009       C  0.84220699  0.85902128  0.57158140    -0.06100
C1010       C  0.87864260  0.86499478  0.56980385    -0.00100
C1011       C  0.89988448  0.85861843  0.59960492    -0.08700
C1012       C  0.88406477  0.84305673  0.62896310    -0.06100
C1013       C  0.84817076  0.83460106  0.62926338    -0.00100
C1014       C  0.82652403  0.84380321  0.60093295    -0.08600
C1015       C  0.78717165  0.83695869  0.60159784     0.61800
H1016       H  0.82607215  0.86565767  0.54932840     0.12500
H1017       H  0.89977011  0.83629849  0.65154975     0.12500
C1018       C  0.93882868  0.86759092  0.60052898     0.62000
F1019       F  0.77028970  0.85251185  0.57363818    -0.23200
F1020       F  0.77284655  0.85044740  0.63202174    -0.20500
F1021       F  0.78083751  0.80126877  0.60015338    -0.20200
F1022       F  0.94295340  0.90359561  0.59989174    -0.20200
F1023       F  0.95585449  0.85288954  0.57212906    -0.20500
F1024       F  0.95491392  0.85529261  0.63051546    -0.23200
C1025       C  0.65014981  0.75324158  0.58746048    -0.06100
C1026       C  0.65414764  0.72611647  0.56299893    -0.00100
C1027       C  0.68106549  0.70082235  0.56844304    -0.08700
C1028       C  0.70354817  0.70425723  0.59771650    -0.06100
C1029       C  0.70015167  0.73194124  0.62178942    -0.00100
C1030       C  0.67284196  0.75688899  0.61653200    -0.08600
C1031       C  0.66848118  0.78824528  0.64056280     0.61800
H1032       H  0.62974104  0.77244987  0.58285432     0.12500
H1033       H  0.72418564  0.68521702  0.60202072     0.12500
C1034       C  0.68567663  0.66980477  0.54386112     0.62000
F1035       F  0.64500513  0.81244415  0.62721491    -0.23200
F1036       F  0.70051235  0.80501925  0.64496651    -0.20500
F1037       F  0.65584477  0.77717028  0.67254138    -0.20200
F1038       F  0.69802732  0.68111305  0.51186755    -0.20200
F1039       F  0.65376275  0.65288660  0.53931306    -0.20500
F1040       F  0.70944547  0.64563918  0.55680441    -0.23200
C1041       C  0.70914024  0.75617081  0.40698590    -0.06100
C1042       C  0.70280012  0.73339360  0.37877634    -0.00100
C1043       C  0.67092341  0.71341227  0.37873841    -0.08700
C1044       C  0.64791563  0.71560570  0.40781927    -0.06100
C1045       C  0.65460860  0.73816360  0.43603949    -0.00100
C1046       C  0.68475054  0.76030250  0.43454082    -0.08600
C1047       C  0.69136202  0.78956982  0.46075611     0.61800
H1048       H  0.73268061  0.77229348  0.40661433     0.12500
H1049       H  0.62470831  0.69913109  0.40907142     0.12500
C1050       C  0.66125295  0.68919625  0.34863138     0.62000
F1051       F  0.70459748  0.81881129  0.44384513    -0.23200
F1052       F  0.71557054  0.77857292  0.48528109    -0.20500
F1053       F  0.66081384  0.79986896  0.47754997    -0.20200
F1054       F  0.68893866  0.66701606  0.34119909    -0.20200
F1055       F  0.65334825  0.70878947  0.31939107    -0.20500
F1056       F  0.63215032  0.66867199  0.35626325    -0.23200
C1057       C  0.89433502  0.86271069  0.41131615    -0.06100
C1058       C  0.87346235  0.86098643  0.44160704    -0.00100
C1059       C  0.83896158  0.84660702  0.43926684    -0.08700
C1060       C  0.82827709  0.83133742  0.40760194    -0.06100
C1061       C  0.84957760  0.83224452  0.37780588    -0.00100
C1062       C  0.88264464  0.84930883  0.37912643    -0.08600
C1063       C  0.90544451  0.85339842  0.34686648     0.61800
H1064       H  0.92018287  0.87452217  0.41304885     0.12500
H1065       H  0.80297223  0.81827175  0.40584053     0.12500
C1066       C  0.81265365  0.84835049  0.46908073     0.62000
F1067       F  0.93725353  0.86957020  0.35429966    -0.23200
F1068       F  0.88786002  0.87384440  0.32289199    -0.20500
F1069       F  0.91248933  0.82100330  0.33225115    -0.20200
F1070       F  0.81218117  0.88182190  0.48312290    -0.20200
F1071       F  0.82146254  0.82431615  0.49453723    -0.20500
F1072       F  0.77883827  0.84076665  0.45786966    -0.23200
C1073       C  0.52268528  0.85953706  0.02213428    -0.06100
C1074       C  0.55372305  0.87100900  0.03848109    -0.00100
C1075       C  0.58037263  0.88654881  0.01791310    -0.08700
C1076       C  0.57786830  0.88403483  0.98143996    -0.06100
C1077       C  0.54892469  0.86792998  0.96501162    -0.00100
C1078       C  0.51961873  0.85724195  0.98578431    -0.08600
C1079       C  0.48598255  0.84119010  0.97090567     0.61800
H1080       H  0.50165435  0.84918029  0.03807406     0.12500
H1081       H  0.59955509  0.89343731  0.96560023     0.12500
C1082       C  0.61241240  0.90411683  0.03353865     0.62000
F1083       F  0.46183744  0.83262236  0.99663992    -0.23200
F1084       F  0.49358858  0.81066370  0.95282466    -0.20500
F1085       F  0.46979120  0.86497997  0.94916367    -0.20200
F1086       F  0.63907144  0.87973657  0.03663234    -0.20200
F1087       F  0.60470826  0.91848737  0.06587861    -0.20500
F1088       F  0.62399816  0.93110841  0.01232171    -0.23200
C1089       C  0.62804232  0.77911977  0.12822011    -0.06100
C1090       C  0.62754084  0.81591937  0.12736180    -0.00100
C1091       C  0.65738463  0.83520660  0.13843523    -0.08700
C1092       C  0.68624015  0.81671875  0.15192833    -0.06100
C1093       C  0.68555439  0.78012378  0.15503376    -0.00100
C1094       C  0.65677325  0.76079335  0.14197374    -0.08600
C1095       C  0.65611365  0.72120263  0.14371545     0.61800
H1096       H  0.60505018  0.76485815  0.11923652     0.12500
H1097       H  0.70903089  0.83077497  0.16166918     0.12500
C1098       C  0.65825818  0.87491713  0.13737296     0.62000
F1099       F  0.62746299  0.70715657  0.12620954    -0.23200
F1100       F  0.65431443  0.71112072  0.17819090    -0.20500
F1101       F  0.68639778  0.70777435  0.12882951    -0.20200
F1102       F  0.63017225  0.88841967  0.15598698    -0.20200
F1103       F  0.65624637  0.88596435  0.10323952    -0.20500
F1104       F  0.68901787  0.88837303  0.15145778    -0.23200
C1105       C  0.65254689  0.57397738  0.26458252    -0.06100
C1106       C  0.62179111  0.58408459  0.24711253    -0.00100
C1107       C  0.62126786  0.61695435  0.22939063    -0.08700
C1108       C  0.65100702  0.63892287  0.23152686    -0.06100
C1109       C  0.68145590  0.62925538  0.24964957    -0.00100
C1110       C  0.68238612  0.59603595  0.26647155    -0.08600
C1111       C  0.71386290  0.58445819  0.28799936     0.61800
H1112       H  0.65251896  0.54905427  0.27804620     0.12500
H1113       H  0.65057754  0.66423380  0.21912436     0.12500
C1114       C  0.59000325  0.62907745  0.20761806     0.62000
F1115       F  0.70671231  0.55439039  0.30688961    -0.23200
F1116       F  0.72304277  0.61052659  0.31149442    -0.20500
F1117       F  0.74208830  0.57740049  0.26632574    -0.20200
F1118       F  0.56290294  0.64004244  0.22900512    -0.20200
F1119       F  0.57830252  0.60204814  0.18640871    -0.20500
F1120       F  0.59877846  0.65700412  0.18625871    -0.23200
C1121       C  0.94641488  0.57857143  0.17226505    -0.06100
C1122       C  0.94565746  0.54790803  0.19247934    -0.00100
C1123       C  0.93050678  0.54945361  0.22648881    -0.08700
C1124       C  0.91088918  0.57916046  0.23594289    -0.06100
C1125       C  0.91025179  0.60907590  0.21494420    -0.00100
C1126       C  0.93002912  0.60962187  0.18358681    -0.08600
C1127       C  0.93375781  0.64276923  0.16223166     0.61800
H1128       H  0.95914227  0.57787747  0.14699276     0.12500
H1129       H  0.89691294  0.57952078  0.26066266     0.12500
C1130       C  0.93521218  0.52160075  0.25428149     0.62000
F1131       F  0.95252092  0.63725475  0.13172253    -0.23200
F1132       F  0.95168593  0.66739614  0.18191640    -0.20500
F1133       F  0.90097951  0.65560629  0.15338165    -0.20200
F1134       F  0.94197401  0.53746377  0.28615857    -0.20200
F1135       F  0.96323302  0.49958858  0.24735846    -0.20500
F1136       F  0.90455863  0.50230254  0.25721077    -0.23200
C1137       C  0.91702433  0.42185033  0.21472554    -0.06100
C1138       C  0.93585608  0.41954450  0.18309359    -0.00100
C1139       C  0.93750022  0.38636740  0.16577521    -0.08700
C1140       C  0.91947944  0.35766417  0.18052486    -0.06100
C1141       C  0.89933986  0.36107873  0.21096312    -0.00100
C1142       C  0.89800013  0.39370759  0.22858942    -0.08600
C1143       C  0.87530389  0.39992725  0.26089743     0.61800
H1144       H  0.91610542  0.44653328  0.22837792     0.12500
H1145       H  0.91990627  0.33231060  0.16767789     0.12500
C1146       C  0.95797904  0.38039450  0.13226411     0.62000
F1147       F  0.88416970  0.43084292  0.27782767    -0.23200
F1148       F  0.87918959  0.37311451  0.28465981    -0.20500
F1149       F  0.84035287  0.40205127  0.25120533    -0.20200
F1150       F  0.99342679  0.38437310  0.13904769    -0.20200
F1151       F  0.94731200  0.40375054  0.10683428    -0.20500
F1152       F  0.95307616  0.34692304  0.11901463    -0.23200
C1153       C  0.79312058  0.57898532  0.41300542    -0.06100
C1154       C  0.81274453  0.54908423  0.40401977    -0.00100
C1155       C  0.83257155  0.54968537  0.37237889    -0.08700
C1156       C  0.82918323  0.57833274  0.34944724    -0.06100
C1157       C  0.80905174  0.60785455  0.35788694    -0.00100
C1158       C  0.79163621  0.60881878  0.39096900    -0.08600
C1159       C  0.77171672  0.64109747  0.40334491     0.61800
H1160       H  0.77870305  0.57871257  0.43739950     0.12500
H1161       H  0.84327903  0.57823751  0.32483961     0.12500
C1162       C  0.85882629  0.52111204  0.36315764     0.62000
F1163       F  0.79544248  0.66720235  0.41223292    -0.23200
F1164       F  0.75119816  0.63412065  0.43240202    -0.20500
F1165       F  0.74970250  0.65311808  0.37733293    -0.20200
F1166       F  0.84156833  0.49228079  0.34944705    -0.20200
F1167       F  0.87749554  0.51135340  0.39255233    -0.20500
F1168       F  0.88292327  0.53258398  0.33857019    -0.23200
C1169       C  0.81846363  0.39258309  0.41113573    -0.06100
C1170       C  0.79774027  0.42192980  0.40336640    -0.00100
C1171       C  0.77652204  0.42075293  0.37258331    -0.08700
C1172       C  0.77862736  0.39133134  0.34993760    -0.06100
C1173       C  0.80050090  0.36249756  0.35685997    -0.00100
C1174       C  0.82032997  0.36292843  0.38867422    -0.08600
C1175       C  0.84467318  0.33297934  0.39866063     0.61800
H1176       H  0.83428039  0.39360603  0.43461497     0.12500
H1177       H  0.76294122  0.39066688  0.32635095     0.12500
C1178       C  0.75058454  0.44983758  0.36394040     0.62000
F1179       F  0.86483991  0.34096522  0.42770225    -0.23200
F1180       F  0.86746902  0.32582233  0.37138890    -0.20500
F1181       F  0.82511420  0.30338432  0.40651734    -0.20200
F1182       F  0.76813590  0.47951420  0.35282159    -0.20200
F1183       F  0.73058559  0.45779406  0.39311350    -0.20500
F1184       F  0.72785419  0.44010317  0.33745507    -0.23200
C1185       C  0.43876142  0.60798384  0.77402487    -0.06100
C1186       C  0.43602650  0.63197197  0.74623115    -0.00100
C1187       C  0.45936725  0.62856687  0.71752651    -0.08700
C1188       C  0.48565471  0.60252349  0.71840742    -0.06100
C1189       C  0.48903463  0.57931636  0.74659519    -0.00100
C1190       C  0.46510264  0.58182340  0.77479814    -0.08600
C1191       C  0.46814815  0.55747966  0.80587166     0.61800
H1192       H  0.42028523  0.61023079  0.79546409     0.12500
H1193       H  0.50456610  0.60061781  0.69730582     0.12500
C1194       C  0.45567532  0.65143140  0.68550019     0.62000
F1195       F  0.44312356  0.56474930  0.83114646    -0.23200
F1196       F  0.50105705  0.56092112  0.82093582    -0.20500
F1197       F  0.46352007  0.52318924  0.79491694    -0.20200
F1198       F  0.46348208  0.68587952  0.69382315    -0.20200
F1199       F  0.42151813  0.64915464  0.67333397    -0.20500
F1200       F  0.47806050  0.64102061  0.65891287    -0.23200
C1201       C  0.43471418  0.82077222  0.84260410    -0.06100
C1202       C  0.43612013  0.78438086  0.83738647    -0.00100
C1203       C  0.46757835  0.76588913  0.84377795    -0.08700
C1204       C  0.49700124  0.78474086  0.85545050    -0.06100
C1205       C  0.49590873  0.82127570  0.85998576    -0.00100
C1206       C  0.46459908  0.83988527  0.85290883    -0.08600
C1207       C  0.46361928  0.87971126  0.85333314     0.61800
H1208       H  0.41050916  0.83436876  0.83642121     0.12500
H1209       H  0.52128748  0.77097603  0.86092228     0.12500
C1210       C  0.47080541  0.72684677  0.83670776     0.62000
F1211       F  0.43205779  0.89246258  0.84065044    -0.23200
F1212       F  0.49040682  0.89267372  0.83255687    -0.20500
F1213       F  0.46786022  0.89228966  0.88686707    -0.20200
F1214       F  0.47631413  0.72140816  0.80141970    -0.20200
F1215       F  0.44055028  0.70941972  0.84675935    -0.20500
F1216       F  0.49866884  0.71245904  0.85496544    -0.23200
C1217       C  0.08111752  0.51854101  0.89477553    -0.06100
C1218       C  0.09910461  0.48654832  0.89069002    -0.00100
C1219       C  0.07976371  0.45500366  0.89542822    -0.08700
C1220       C  0.04341046  0.45625241  0.89018469    -0.06100
C1221       C  0.02630950  0.48836432  0.88465935    -0.00100
C1222       C  0.04424400  0.51947485  0.89405754    -0.08600
C1223       C  0.02576320  0.55335255  0.90334203     0.61800
H1224       H  0.09565330  0.54300257  0.89609859     0.12500
H1225       H  0.02915119  0.43178952  0.88739055     0.12500
C1226       C  0.09615841  0.41952478  0.90250292     0.62000
F1227       F  0.03897328  0.56590386  0.93465190    -0.23200
F1228       F  0.98991362  0.54858708  0.90764988    -0.20500
F1229       F  0.03170637  0.57804592  0.87767030    -0.20200
F1230       F  0.12880776  0.42285187  0.91812204    -0.20200
F1231       F  0.09917860  0.40083199  0.87161580    -0.20500
F1232       F  0.07500851  0.40073104  0.92521235    -0.23200
C1233       C  0.18241482  0.58092785  0.83705766    -0.06100
C1234       C  0.18471972  0.54961609  0.81788412    -0.00100
C1235       C  0.19796462  0.55036012  0.78311471    -0.08700
C1236       C  0.21162611  0.58201991  0.77033426    -0.06100
C1237       C  0.21129168  0.61275628  0.79043387    -0.00100
C1238       C  0.19539325  0.61270246  0.82385501    -0.08600
C1239       C  0.19363788  0.64554690  0.84618989     0.61800
H1240       H  0.17139941  0.58009098  0.86312615     0.12500
H1241       H  0.22392263  0.58275707  0.74480210     0.12500
C1242       C  0.19812219  0.51832868  0.75928455     0.62000
F1243       F  0.18013815  0.63881672  0.87908242    -0.23200
F1244       F  0.17216441  0.66995855  0.83028841    -0.20500
F1245       F  0.22700292  0.65937749  0.85028135    -0.20200
F1246       F  0.16608425  0.50109114  0.76100480    -0.20200
F1247       F  0.22480802  0.49580041  0.76903360    -0.20500
F1248       F  0.20363777  0.52749859  0.72474297    -0.23200
C1249       C  0.32336360  0.54607284  0.62848272    -0.06100
C1250       C  0.31079663  0.54977588  0.59404293    -0.00100
C1251       C  0.29657538  0.58264427  0.58426673    -0.08700
C1252       C  0.29600062  0.61037582  0.60915016    -0.06100
C1253       C  0.30786951  0.60634483  0.64402509    -0.00100
C1254       C  0.32090763  0.57276583  0.65395626    -0.08600
C1255       C  0.33152609  0.56398101  0.69128544     0.61800
H1256       H  0.33449740  0.52109247  0.63585446     0.12500
H1257       H  0.28560731  0.63556178  0.60140067     0.12500
C1258       C  0.28144752  0.58838178  0.54806550     0.62000
F1259       F  0.34236873  0.52952394  0.69475259    -0.23200
F1260       F  0.30299209  0.56847749  0.71332891    -0.20500
F1261       F  0.35913439  0.58522417  0.70177562    -0.20200
F1262       F  0.26561058  0.62086518  0.54502406    -0.20200
F1263       F  0.25621700  0.56315160  0.54084883    -0.20500
F1264       F  0.30812623  0.58640680  0.52355488    -0.23200
C1265       C  0.22536555  0.86720440  0.58929659    -0.06100
C1266       C  0.24567017  0.86496153  0.55861604    -0.00100
C1267       C  0.27971217  0.84933632  0.56019733    -0.08700
C1268       C  0.29052736  0.83420607  0.59170154    -0.06100
C1269       C  0.26945640  0.83502948  0.62155233    -0.00100
C1270       C  0.23680906  0.85270187  0.62097620    -0.08600
C1271       C  0.21358622  0.85502902  0.65322034     0.61800
H1272       H  0.19974192  0.87943102  0.58808325     0.12500
H1273       H  0.31531390  0.82045652  0.59306339     0.12500
C1274       C  0.30500891  0.84819388  0.52940485     0.62000
F1275       F  0.18190659  0.87144377  0.64633128    -0.23200
F1276       F  0.23065686  0.87414230  0.67888049    -0.20500
F1277       F  0.20625638  0.82174200  0.66551993    -0.20200
F1278       F  0.33836948  0.83753990  0.53928110    -0.20200
F1279       F  0.30819340  0.88124198  0.51493474    -0.20500
F1280       F  0.29303180  0.82457714  0.50464726    -0.23200
C1281       C  0.42571111  0.70144796  0.60599151    -0.06100
C1282       C  0.41206070  0.73392961  0.61694340    -0.00100
C1283       C  0.42551101  0.76500295  0.60153544    -0.08700
C1284       C  0.45097349  0.76245649  0.57477163    -0.06100
C1285       C  0.46434287  0.73002170  0.56374962    -0.00100
C1286       C  0.45227216  0.69903939  0.58016339    -0.08600
C1287       C  0.46789223  0.66376648  0.57045594     0.61800
H1288       H  0.41538925  0.67790260  0.61777501     0.12500
H1289       H  0.46010409  0.78584802  0.56155721     0.12500
C1290       C  0.41234806  0.80069575  0.61282912     0.62000
F1291       F  0.45382238  0.63683753  0.59022670    -0.23200
F1292       F  0.50385821  0.66461590  0.57602979    -0.20500
F1293       F  0.46148986  0.65646982  0.53564972    -0.20200
F1294       F  0.41917313  0.80555225  0.64786681    -0.20200
F1295       F  0.37655158  0.80266245  0.60714850    -0.20500
F1296       F  0.42849476  0.82763215  0.59464213    -0.23200
C1297       C  0.43498992  0.37213652  0.73676634    -0.06100
C1298       C  0.44125229  0.33731714  0.74757576    -0.00100
C1299       C  0.47563331  0.32814166  0.75878483    -0.08700
C1300       C  0.50231281  0.35376360  0.75718537    -0.06100
C1301       C  0.49633721  0.38832199  0.74547392    -0.00100
C1302       C  0.46170987  0.39787767  0.73561231    -0.08600
C1303       C  0.45279105  0.43450367  0.72290924     0.61800
H1304       H  0.40867301  0.37910046  0.72860603     0.12500
H1305       H  0.52858838  0.34674303  0.76538987     0.12500
C1306       C  0.48453516  0.29217423  0.77363818     0.62000
F1307       F  0.41789633  0.43732087  0.71295610    -0.23200
F1308       F  0.47343430  0.44276856  0.69432260    -0.20500
F1309       F  0.45852222  0.45862475  0.74933965    -0.20200
F1310       F  0.48128083  0.26663980  0.74819210    -0.20200
F1311       F  0.46234967  0.28444826  0.80115427    -0.20500
F1312       F  0.51870002  0.29070601  0.78608099    -0.23200
C1313       C  0.45722187  0.16516586  0.82335052    -0.06100
C1314       C  0.43555745  0.18876400  0.84177712    -0.00100
C1315       C  0.44480464  0.19892400  0.87617825    -0.08700
C1316       C  0.47587459  0.18517384  0.89071962    -0.06100
C1317       C  0.49790994  0.16274301  0.87152630    -0.00100
C1318       C  0.48840647  0.15207499  0.83755679    -0.08600
C1319       C  0.51123906  0.12718684  0.81635296     0.61800
H1320       H  0.45002912  0.15777881  0.79699707     0.12500
H1321       H  0.48371379  0.19246098  0.91695248     0.12500
C1322       C  0.42315492  0.22529253  0.89670008     0.62000
F1323       F  0.54265300  0.14352936  0.80815476    -0.23200
F1324       F  0.49522091  0.11717402  0.78541698    -0.20500
F1325       F  0.51800293  0.09717235  0.83539718    -0.20200
F1326       F  0.39054516  0.21115319  0.90444017    -0.20200
F1327       F  0.41886298  0.25551378  0.87727233    -0.20500
F1328       F  0.43922949  0.23449857  0.92784017    -0.23200
C1329       C  0.28894598  0.39300416  0.65096293    -0.06100
C1330       C  0.31104779  0.36471904  0.64291577    -0.00100
C1331       C  0.32933763  0.36518122  0.61039669    -0.08700
C1332       C  0.32530083  0.39417697  0.58762364    -0.06100
C1333       C  0.30323369  0.42253690  0.59571477    -0.00100
C1334       C  0.28378784  0.42129670  0.62772850    -0.08600
C1335       C  0.25621769  0.44867005  0.63712976     0.61800
H1336       H  0.27479672  0.39231948  0.67551819     0.12500
H1337       H  0.33992728  0.39514392  0.56337210     0.12500
C1338       C  0.35340969  0.33539529  0.59958987     0.62000
F1339       F  0.23398874  0.43696421  0.66333809    -0.23200
F1340       F  0.23565241  0.45599746  0.60828738    -0.20500
F1341       F  0.27221023  0.47908544  0.64885949    -0.20200
F1342       F  0.33331188  0.30686140  0.58949187    -0.20200
F1343       F  0.37495700  0.32598777  0.62705987    -0.20500
F1344       F  0.37481369  0.34472997  0.57184398    -0.23200
C1345       C  0.17041841  0.40041685  0.81061819    -0.06100
C1346       C  0.19227676  0.42274905  0.83008793    -0.00100
C1347       C  0.22768518  0.41391400  0.83605993    -0.08700
C1348       C  0.24080067  0.38347362  0.82033334    -0.06100
C1349       C  0.21969149  0.36189692  0.79882139    -0.00100
C1350       C  0.18348572  0.36978910  0.79475625    -0.08600
C1351       C  0.15891945  0.34689879  0.77327561     0.61800
H1352       H  0.14314596  0.40781710  0.80713346     0.12500
H1353       H  0.26809613  0.37652386  0.82447694     0.12500
C1354       C  0.25118594  0.43621897  0.85942100     0.62000
F1355       F  0.12584282  0.36169361  0.77006597    -0.23200
F1356       F  0.15495339  0.31467288  0.78927968    -0.20500
F1357       F  0.17246819  0.34226836  0.74004589    -0.20200
F1358       F  0.23522429  0.44080060  0.89159378    -0.20200
F1359       F  0.25686648  0.46864684  0.84436871    -0.20500
F1360       F  0.28363229  0.42073794  0.86488590    -0.23200
C1361       C  0.16398844  0.00461236  0.52705626    -0.06100
C1362       C  0.16950512  0.02225566  0.49525741    -0.00100
C1363       C  0.16333209  0.00345006  0.46379728    -0.08700
C1364       C  0.16517792  0.96683945  0.46499482    -0.06100
C1365       C  0.16928012  0.94927287  0.49690533    -0.00100
C1366       C  0.16173885  0.96792000  0.52794100    -0.08600
C1367       C  0.15252269  0.95003149  0.56191320     0.61800
H1368       H  0.16397958  0.01903713  0.55148753     0.12500
H1369       H  0.16666253  0.95247839  0.44066180     0.12500
C1370       C  0.15797098  0.02065692  0.42861068     0.62000
F1371       F  0.12609313  0.96849349  0.57869208    -0.23200
F1372       F  0.18170537  0.94895331  0.58338195    -0.20500
F1373       F  0.14025340  0.91630549  0.55602731    -0.20200
F1374       F  0.18984925  0.02375927  0.41144666    -0.20200
F1375       F  0.14273173  0.05336717  0.43242611    -0.20500
F1376       F  0.13559861  0.00045881  0.40822241    -0.23200
C1377       C  0.22883403  0.14066466  0.61739654    -0.06100
C1378       C  0.26505583  0.13852239  0.62396586    -0.00100
C1379       C  0.28710753  0.11998966  0.60069488    -0.08700
C1380       C  0.27236569  0.10600234  0.56995287    -0.06100
C1381       C  0.23634275  0.10936532  0.56261615    -0.00100
C1382       C  0.21387285  0.12600582  0.58706701    -0.08600
C1383       C  0.17467716  0.12971630  0.58037922     0.61800
H1384       H  0.21253442  0.15494363  0.63578485     0.12500
H1385       H  0.28892755  0.09258136  0.55117192     0.12500
C1386       C  0.32594339  0.11540846  0.60838639     0.62000
F1387       F  0.15807924  0.14837173  0.60670690    -0.23200
F1388       F  0.15914997  0.09693970  0.57854030    -0.20500
F1389       F  0.16929989  0.14720294  0.54925276    -0.20200
F1390       F  0.32996159  0.09842749  0.63998568    -0.20200
F1391       F  0.34214692  0.14782488  0.61022423    -0.20500
F1392       F  0.34265851  0.09574728  0.58286228    -0.23200
C1393       C  0.26576741  0.09571039  0.41550370    -0.06100
C1394       C  0.23887333  0.11217565  0.43454860    -0.00100
C1395       C  0.22389125  0.14357966  0.42222100    -0.08700
C1396       C  0.23659111  0.15789184  0.39095370    -0.06100
C1397       C  0.26469556  0.14256970  0.37254507    -0.00100
C1398       C  0.27964311  0.11089553  0.38485646    -0.08600
C1399       C  0.31142121  0.09460202  0.36718525     0.61800
H1400       H  0.27659108  0.07149785  0.42552606     0.12500
H1401       H  0.22550300  0.18214751  0.38128626     0.12500
C1402       C  0.19560015  0.16255380  0.44293072     0.62000
F1403       F  0.32425399  0.06627626  0.38572236    -0.23200
F1404       F  0.33802764  0.11925026  0.36478496    -0.20500
F1405       F  0.30254909  0.08307148  0.33407685    -0.20200
F1406       F  0.20976093  0.17459782  0.47400409    -0.20200
F1407       F  0.16796508  0.14001576  0.45011556    -0.20500
F1408       F  0.18229573  0.19100506  0.42495140    -0.23200
C1409       C  0.47081529  0.24877368  0.59034268    -0.06100
C1410       C  0.46083993  0.22820725  0.56147743    -0.00100
C1411       C  0.42808051  0.20974267  0.56282675    -0.08700
C1412       C  0.40636111  0.21381170  0.59229770    -0.06100
C1413       C  0.41606045  0.23462878  0.62082296    -0.00100
C1414       C  0.44907200  0.25232658  0.62012422    -0.08600
C1415       C  0.46130062  0.27533157  0.65023812     0.61800
H1416       H  0.49561610  0.26274659  0.58908381     0.12500
H1417       H  0.38124763  0.20045263  0.59337596     0.12500
C1418       C  0.41562141  0.18515955  0.53392280     0.62000
F1419       F  0.49061804  0.29505912  0.64142672    -0.23200
F1420       F  0.47010004  0.25445921  0.67828780    -0.20500
F1421       F  0.43494776  0.29830937  0.66001139    -0.20200
F1422       F  0.44254482  0.16286112  0.52414295    -0.20200
F1423       F  0.40451915  0.20423554  0.50544267    -0.20500
F1424       F  0.38748759  0.16459944  0.54451810    -0.23200
C1425       C  0.42674717  0.24775419  0.43955114    -0.06100
C1426       C  0.46236273  0.23835869  0.43481584    -0.00100
C1427       C  0.47366201  0.23037731  0.40037132    -0.08700
C1428       C  0.44899865  0.23233428  0.37258838    -0.06100
C1429       C  0.41274215  0.23938627  0.37784339    -0.00100
C1430       C  0.40145071  0.24652191  0.41267875    -0.08600
C1431       C  0.36300280  0.25218975  0.42261686     0.61800
H1432       H  0.41826345  0.25558265  0.46533565     0.12500
H1433       H  0.45807986  0.22747673  0.34628894     0.12500
C1434       C  0.51104984  0.21869106  0.39277966     0.62000
F1435       F  0.35852385  0.25727043  0.45817266    -0.23200
F1436       F  0.34335960  0.22294810  0.41352074    -0.20500
F1437       F  0.35003041  0.28154346  0.40597925    -0.20200
F1438       F  0.51845477  0.18877293  0.41173281    -0.20200
F1439       F  0.53447668  0.24502556  0.40169230    -0.20500
F1440       F  0.51606757  0.21095378  0.35779062    -0.23200
C1441       C  0.46670808  0.63735369  0.27853660    -0.06100
C1442       C  0.43662641  0.62601193  0.26030408    -0.00100
C1443       C  0.43529571  0.59016737  0.24879056    -0.08700
C1444       C  0.46549121  0.56902429  0.25266605    -0.06100
C1445       C  0.49591324  0.58122967  0.26930566    -0.00100
C1446       C  0.49540277  0.61510946  0.28497724    -0.08600
C1447       C  0.52343361  0.62870724  0.30996597     0.61800
H1448       H  0.46741654  0.66368980  0.28928095     0.12500
H1449       H  0.46602883  0.54288178  0.24157488     0.12500
C1450       C  0.40286437  0.57355366  0.23215668     0.62000
F1451       F  0.50738119  0.64263681  0.33934747    -0.23200
F1452       F  0.54272921  0.65495724  0.29406599    -0.20500
F1453       F  0.54597073  0.60271756  0.32125053    -0.20200
F1454       F  0.39349728  0.59169460  0.20243099    -0.20200
F1455       F  0.37528965  0.57361527  0.25576018    -0.20500
F1456       F  0.40854228  0.53900050  0.22247472    -0.23200
C1457       C  0.50319500  0.78226274  0.15104457    -0.06100
C1458       C  0.50026493  0.81686648  0.13902832    -0.00100
C1459       C  0.46671392  0.83319897  0.13868467    -0.08700
C1460       C  0.43720144  0.81364891  0.14946675    -0.06100
C1461       C  0.44041036  0.77922298  0.16191498    -0.00100
C1462       C  0.47402582  0.76312428  0.16271599    -0.08600
C1463       C  0.48120536  0.72591417  0.17493818     0.61800
H1464       H  0.52868152  0.76952231  0.15082252     0.12500
H1465       H  0.41145904  0.82582256  0.14991848     0.12500
C1466       C  0.46195832  0.87142774  0.12860221     0.62000
F1467       F  0.49666414  0.70722588  0.14799211    -0.23200
F1468       F  0.45150050  0.70792767  0.18521861    -0.20500
F1469       F  0.50423750  0.72690904  0.20286110    -0.20200
F1470       F  0.46325167  0.87476359  0.09270547    -0.20200
F1471       F  0.48810645  0.89182249  0.14359275    -0.20500
F1472       F  0.42990333  0.88438449  0.13992418    -0.23200
C1473       C  0.43646693  0.70161882  0.43385946    -0.06100
C1474       C  0.46198579  0.72836278  0.43664301    -0.00100
C1475       C  0.46182247  0.75557927  0.41150229    -0.08700
C1476       C  0.43663764  0.75464362  0.38421802    -0.06100
C1477       C  0.41071172  0.72820651  0.38172455    -0.00100
C1478       C  0.41084471  0.70097401  0.40698809    -0.08600
C1479       C  0.38440007  0.67106713  0.40555847     0.61800
H1480       H  0.43633817  0.68136019  0.45361952     0.12500
H1481       H  0.43644080  0.77528794  0.36486511     0.12500
C1482       C  0.48683592  0.78650116  0.41454372     0.62000
F1483       F  0.39164023  0.64547945  0.43009733    -0.23200
F1484       F  0.38506461  0.65541584  0.37292545    -0.20500
F1485       F  0.35101518  0.68377677  0.41218723    -0.20200
F1486       F  0.52124208  0.77496789  0.41289355    -0.20200
F1487       F  0.48135480  0.80352907  0.44603456    -0.20500
F1488       F  0.48190937  0.81051139  0.38796132    -0.23200
C1489       C  0.22939722  0.83732134  0.37325301    -0.06100
C1490       C  0.26510460  0.82858055  0.37215649    -0.00100
C1491       C  0.28793023  0.83886186  0.39919935    -0.08700
C1492       C  0.27362076  0.85585592  0.42830985    -0.06100
C1493       C  0.23738768  0.86272321  0.43084607    -0.00100
C1494       C  0.21495952  0.85483573  0.40220885    -0.08600
C1495       C  0.17618554  0.86435140  0.40208159     0.61800
H1496       H  0.21287691  0.82973003  0.35143920     0.12500
H1497       H  0.29071574  0.86372728  0.44950129     0.12500
C1498       C  0.32720326  0.83219444  0.39673012     0.62000
F1499       F  0.15897142  0.85118586  0.37300363    -0.23200
F1500       F  0.17275936  0.90040500  0.40156084    -0.20500
F1501       F  0.15976574  0.85099537  0.43143593    -0.20200
F1502       F  0.34018535  0.84793600  0.36689197    -0.20200
F1503       F  0.33365992  0.79654984  0.39509609    -0.20500
F1504       F  0.34514911  0.84572802  0.42518127    -0.23200
C1505       C  0.07680798  0.51406931  0.09824435    -0.06100
C1506       C  0.09524622  0.48242926  0.10271250    -0.00100
C1507       C  0.07613010  0.45054742  0.09942424    -0.08700
C1508       C  0.03964499  0.45162968  0.10450479    -0.06100
C1509       C  0.02222670  0.48363957  0.10961844    -0.00100
C1510       C  0.03992179  0.51463581  0.09945594    -0.08600
C1511       C  0.02103094  0.54809986  0.08986071     0.61800
H1512       H  0.09096559  0.53866130  0.09597621     0.12500
H1513       H  0.02544710  0.42729518  0.10721405     0.12500
C1514       C  0.09327559  0.41516814  0.09354580     0.62000
F1515       F  0.03474679  0.56094844  0.05891749    -0.23200
F1516       F  0.02576427  0.57291918  0.11581932    -0.20500
F1517       F  0.98542096  0.54239782  0.08476660    -0.20200
F1518       F  0.09885142  0.39880018  0.12522944    -0.20200
F1519       F  0.12488503  0.41877112  0.07594084    -0.20500
F1520       F  0.07165184  0.39398891  0.07337512    -0.23200
C1521       C  0.16812765  0.57662945  0.16896919    -0.06100
C1522       C  0.19108661  0.55173086  0.15438643    -0.00100
C1523       C  0.22760082  0.55842314  0.15383468    -0.08700
C1524       C  0.24025999  0.58772073  0.17189220    -0.06100
C1525       C  0.21780835  0.61110959  0.18974265    -0.00100
C1526       C  0.18080199  0.60697089  0.18604210    -0.08600
C1527       C  0.15472864  0.63377601  0.19984712     0.61800
H1528       H  0.14012218  0.57141103  0.16798034     0.12500
H1529       H  0.26836589  0.59238966  0.17222794     0.12500
C1530       C  0.25317551  0.53539056  0.13360020     0.62000
F1531       F  0.12022955  0.62349695  0.19412310    -0.23200
F1532       F  0.15972382  0.66542883  0.18298317    -0.20500
F1533       F  0.15925497  0.63831311  0.23537144    -0.20200
F1534       F  0.24079121  0.53022262  0.10002321    -0.20200
F1535       F  0.25700386  0.50335003  0.14984742    -0.20500
F1536       F  0.28621198  0.55062644  0.13119828    -0.23200
C1537       C  0.21427110  0.39359887  0.21975512    -0.06100
C1538       C  0.21377380  0.36228487  0.20057274    -0.00100
C1539       C  0.19775247  0.36150934  0.16719570    -0.08700
C1540       C  0.18525879  0.39308120  0.15307402    -0.06100
C1541       C  0.18718456  0.42485634  0.17163292    -0.00100
C1542       C  0.20061105  0.42494912  0.20627980    -0.08600
C1543       C  0.19988771  0.45735296  0.22954943     0.61800
H1544       H  0.22610466  0.39332696  0.24540797     0.12500
H1545       H  0.17415554  0.39324565  0.12705166     0.12500
C1546       C  0.19417204  0.32778159  0.14635707     0.62000
F1547       F  0.20830150  0.44945929  0.26379282    -0.23200
F1548       F  0.16653113  0.47179829  0.22951213    -0.20500
F1549       F  0.22401206  0.48182588  0.21786306    -0.20200
F1550       F  0.17189516  0.30506362  0.16376234    -0.20200
F1551       F  0.22667039  0.31226319  0.14233968    -0.20500
F1552       F  0.18041217  0.33353245  0.11339455    -0.23200
C1553       C  0.28626919  0.57052593  0.40257658    -0.06100
C1554       C  0.31460730  0.54697201  0.40185276    -0.00100
C1555       C  0.34075526  0.55128055  0.37541100    -0.08700
C1556       C  0.33763314  0.57897088  0.35102603    -0.06100
C1557       C  0.30912032  0.60225788  0.35152430    -0.00100
C1558       C  0.28269645  0.59765592  0.37756602    -0.08600
C1559       C  0.24951527  0.61975477  0.37742661     0.61800
H1560       H  0.26595431  0.56646465  0.42200009     0.12500
H1561       H  0.35760008  0.58265276  0.33117091     0.12500
C1562       C  0.37210969  0.52674893  0.37275683     0.62000
F1563       F  0.22433978  0.60693694  0.40021837    -0.23200
F1564       F  0.23516821  0.61961331  0.34424835    -0.20500
F1565       F  0.25722524  0.65379658  0.38729492    -0.20200
F1566       F  0.36135045  0.49427268  0.36063691    -0.20200
F1567       F  0.38762287  0.52301515  0.40518314    -0.20500
F1568       F  0.39741072  0.53937634  0.34995009    -0.23200
C1569       C  0.33162236  0.36624696  0.37927669    -0.06100
C1570       C  0.30807539  0.36665291  0.35088243    -0.00100
C1571       C  0.28223094  0.39334473  0.34962183    -0.08700
C1572       C  0.28224590  0.41971625  0.37559165    -0.06100
C1573       C  0.30639651  0.41996068  0.40347657    -0.00100
C1574       C  0.33141780  0.39254048  0.40550986    -0.08600
C1575       C  0.35849343  0.39164675  0.43454115     0.61800
H1576       H  0.35073360  0.34528904  0.38040253     0.12500
H1577       H  0.26375334  0.44121446  0.37363647     0.12500
C1578       C  0.25538576  0.39527829  0.32044817     0.62000
F1579       F  0.38247934  0.36475424  0.42987133    -0.23200
F1580       F  0.34169261  0.38661576  0.46617215    -0.20500
F1581       F  0.37698278  0.42293086  0.43553071    -0.20200
F1582       F  0.24349656  0.36224457  0.31122168    -0.20200
F1583       F  0.27077363  0.41105766  0.29179821    -0.20500
F1584       F  0.22631537  0.41471830  0.33045154    -0.23200
C1585       C  0.12431202  0.31007949  0.34180070    -0.06100
C1586       C  0.12266153  0.30224005  0.37729867    -0.00100
C1587       C  0.15206874  0.28752188  0.39437817    -0.08700
C1588       C  0.18123130  0.27753707  0.37403556    -0.06100
C1589       C  0.18216091  0.28344878  0.33779137    -0.00100
C1590       C  0.15418221  0.30242759  0.32187547    -0.08600
C1591       C  0.15568630  0.31600904  0.28460094     0.61800
H1592       H  0.10178013  0.32248945  0.32971255     0.12500
H1593       H  0.20318689  0.26435225  0.38625586     0.12500
C1594       C  0.15217456  0.28155252  0.43355073     0.62000
F1595       F  0.13081577  0.34184337  0.27882083    -0.23200
F1596       F  0.14938758  0.28899678  0.26123820    -0.20500
F1597       F  0.18826294  0.33073632  0.27817774    -0.20200
F1598       F  0.12411870  0.26035522  0.44277618    -0.20200
F1599       F  0.14941735  0.31334128  0.45079262    -0.20500
F1600       F  0.18286556  0.26561482  0.44463533    -0.23200
C1601       C  0.98960923  0.30473596  0.34806120    -0.06100
C1602       C  0.99549422  0.29019247  0.38084999    -0.00100
C1603       C  0.97140905  0.26565662  0.39485973    -0.08700
C1604       C  0.94122476  0.25695910  0.37527518    -0.06100
C1605       C  0.93551850  0.27124664  0.34202268    -0.00100
C1606       C  0.96022349  0.29568576  0.32811452    -0.08600
C1607       C  0.95640129  0.31233551  0.29234290     0.61800
H1608       H  0.00886487  0.32306321  0.33785008     0.12500
H1609       H  0.92234937  0.23821000  0.38535024     0.12500
C1610       C  0.97813948  0.24804990  0.42958974     0.62000
F1611       F  0.97777259  0.34157918  0.28859322    -0.23200
F1612       F  0.92223912  0.32305375  0.28746336    -0.20500
F1613       F  0.96549386  0.28836452  0.26672975    -0.20200
F1614       F  0.97605099  0.27256186  0.45614121    -0.20200
F1615       F  0.01128889  0.23315479  0.42960458    -0.20500
F1616       F  0.95382946  0.22177881  0.43617307    -0.23200
C1617       C  0.12818415  0.10765892  0.27395953    -0.06100
C1618       C  0.12706993  0.08033037  0.24921511    -0.00100
C1619       C  0.15387042  0.07805960  0.22364555    -0.08700
C1620       C  0.18080599  0.10355943  0.22366649    -0.06100
C1621       C  0.18074359  0.13196484  0.24717457    -0.00100
C1622       C  0.15439610  0.13379762  0.27323438    -0.08600
C1623       C  0.15387596  0.16318532  0.30009577     0.61800
H1624       H  0.10727875  0.10915432  0.29314859     0.12500
H1625       H  0.20179912  0.10201260  0.20466437     0.12500
C1626       C  0.15302074  0.05003332  0.19544749     0.62000
F1627       F  0.12807758  0.15802770  0.32512636    -0.23200
F1628       F  0.14723076  0.19470619  0.28366354    -0.20500
F1629       F  0.18597493  0.16512733  0.31699808    -0.20200
F1630       F  0.12220793  0.05281641  0.17645650    -0.20200
F1631       F  0.15467494  0.01719282  0.21052704    -0.20500
F1632       F  0.18102195  0.05319873  0.17250548    -0.23200
C1633       C  0.96901044  0.14215892  0.23668626    -0.06100
C1634       C  0.93595401  0.12729580  0.24379744    -0.00100
C1635       C  0.93462790  0.09002163  0.24893473    -0.08700
C1636       C  0.96617621  0.07008402  0.24708018    -0.06100
C1637       C  0.99930235  0.08527548  0.24072784    -0.00100
C1638       C  0.00038539  0.12246728  0.23450876    -0.08600
C1639       C  0.03404547  0.14266822  0.22584457     0.61800
H1640       H  0.97041059  0.17022507  0.23345418     0.12500
H1641       H  0.96526539  0.04209705  0.25152982     0.12500
C1642       C  0.90062844  0.07069098  0.25736263     0.62000
F1643       F  0.02743507  0.17699411  0.21613357    -0.23200
F1644       F  0.05137414  0.12692261  0.19816489    -0.20500
F1645       F  0.05564200  0.14407022  0.25485923    -0.20200
F1646       F  0.87688180  0.07459278  0.23031708    -0.20200
F1647       F  0.88649782  0.08371700  0.28806172    -0.20500
F1648       F  0.90587461  0.03505896  0.26192115    -0.23200
C1649       C  0.99371998  0.69582300  0.37070944    -0.06100
C1650       C  0.99472688  0.65906050  0.37331828    -0.00100
C1651       C  0.96520037  0.63887914  0.36289087    -0.08700
C1652       C  0.93595083  0.65636683  0.34894234    -0.06100
C1653       C  0.93569924  0.69285886  0.34505288    -0.00100
C1654       C  0.96443357  0.71317848  0.35672301    -0.08600
C1655       C  0.96377205  0.75286118  0.35453567     0.61800
H1656       H  0.01636378  0.71084698  0.37930243     0.12500
H1657       H  0.91344299  0.64156180  0.33961405     0.12500
C1658       C  0.96508968  0.59914641  0.36479575     0.62000
F1659       F  0.99312602  0.76792193  0.36991735    -0.23200
F1660       F  0.93424945  0.76529836  0.37165671    -0.20500
F1661       F  0.96272117  0.76316678  0.31996871    -0.20200
F1662       F  0.96602352  0.58865584  0.39927929    -0.20200
F1663       F  0.99404551  0.58588025  0.34733749    -0.20500
F1664       F  0.93520457  0.58490005  0.34968745    -0.23200
C1665       C  0.13740526  0.68637276  0.38499666    -0.06100
C1666       C  0.12243641  0.65601069  0.37052111    -0.00100
C1667       C  0.13724524  0.64032718  0.34055715    -0.08700
C1668       C  0.16705107  0.65588126  0.32568657    -0.06100
C1669       C  0.18144807  0.68696145  0.33929289    -0.00100
C1670       C  0.16673853  0.70259104  0.36948345    -0.08600
C1671       C  0.18062406  0.73705609  0.38392078     0.61800
H1672       H  0.12509149  0.69793258  0.40780132     0.12500
H1673       H  0.17884147  0.64443834  0.30255599     0.12500
C1674       C  0.12045340  0.60848128  0.32341444     0.62000
F1675       F  0.16006539  0.74944452  0.41113973    -0.23200
F1676       F  0.18073944  0.76210529  0.35787219    -0.20500
F1677       F  0.21448574  0.73264143  0.39625750    -0.20200
F1678       F  0.08826036  0.61787150  0.30953007    -0.20200
F1679       F  0.11546354  0.58222578  0.34776697    -0.20500
F1680       F  0.14110575  0.59512269  0.29672653    -0.23200
C1681       C  0.93463425  0.87698637  0.25413296    -0.06100
C1682       C  0.94008170  0.84165243  0.24398683    -0.00100
C1683       C  0.97385461  0.83238603  0.23078827    -0.08700
C1684       C  0.00115805  0.85733836  0.23228783    -0.06100
C1685       C  0.99637813  0.89179353  0.24489877    -0.00100
C1686       C  0.96191289  0.90235808  0.25435138    -0.08600
C1687       C  0.95359190  0.94001539  0.26434040     0.61800
H1688       H  0.90848412  0.88493896  0.26180092     0.12500
H1689       H  0.02707660  0.84976965  0.22338720     0.12500
C1690       C  0.98149715  0.79706390  0.21373874     0.62000
F1691       F  0.91874086  0.94416535  0.27401726    -0.23200
F1692       F  0.95985358  0.96160961  0.23603505    -0.20500
F1693       F  0.97428635  0.95049722  0.29218406    -0.20200
F1694       F  0.95681686  0.79036420  0.18803935    -0.20200
F1695       F  0.98081144  0.77073111  0.23847487    -0.20500
F1696       F  0.01427842  0.79629853  0.19792999    -0.23200
C1697       C  0.12094313  0.85848308  0.23545166    -0.06100
C1698       C  0.12366112  0.89018773  0.25432088    -0.00100
C1699       C  0.15509982  0.89660488  0.27331048    -0.08700
C1700       C  0.18242741  0.87109561  0.27238694    -0.06100
C1701       C  0.17957689  0.83938750  0.25310100    -0.00100
C1702       C  0.14794177  0.83323306  0.23423356    -0.08600
C1703       C  0.14279008  0.80095556  0.21133382     0.61800
H1704       H  0.09701008  0.85358478  0.22094382     0.12500
H1705       H  0.20646349  0.87588818  0.28680413     0.12500
C1706       C  0.15964733  0.92985989  0.29471830     0.62000
F1707       F  0.11203991  0.80246587  0.19207184    -0.23200
F1708       F  0.14108997  0.77112999  0.23174433    -0.20500
F1709       F  0.17044680  0.79833675  0.18804488    -0.20200
F1710       F  0.13211966  0.93325169  0.31814621    -0.20200
F1711       F  0.16017885  0.95856092  0.27275793    -0.20500
F1712       F  0.19074956  0.92978651  0.31352133    -0.23200
C1713       C  0.08633408  0.59404921  0.51968167    -0.06100
C1714       C  0.05375247  0.60082563  0.53582243    -0.00100
C1715       C  0.02249454  0.59443648  0.51622266    -0.08700
C1716       C  0.02552617  0.59120841  0.47984256    -0.06100
C1717       C  0.05830028  0.59362589  0.46308173    -0.00100
C1718       C  0.08893134  0.58878481  0.48354680    -0.08600
C1719       C  0.12440567  0.57804003  0.46902146     0.61800
H1720       H  0.11030984  0.59445026  0.53499848     0.12500
H1721       H  0.00183820  0.59100229  0.46417651     0.12500
C1722       C  0.98578597  0.59379207  0.53199954     0.62000
F1723       F  0.13738190  0.55039408  0.48847209    -0.23200
F1724       F  0.14772003  0.60585513  0.47138675    -0.20500
F1725       F  0.12229201  0.56674247  0.43475618    -0.20200
F1726       F  0.97467488  0.62759398  0.53908480    -0.20200
F1727       F  0.98564238  0.57403926  0.56223210    -0.20500
F1728       F  0.96165377  0.57873805  0.50934176    -0.23200
C1729       C  0.13691224  0.64654085  0.64822228    -0.06100
C1730       C  0.11891750  0.66737833  0.62436285    -0.00100
C1731       C  0.13135767  0.70134589  0.61602718    -0.08700
C1732       C  0.16226395  0.71352094  0.63223984    -0.06100
C1733       C  0.17957972  0.69304255  0.65712275    -0.00100
C1734       C  0.16684616  0.65910155  0.66540994    -0.08600
C1735       C  0.18329682  0.63716032  0.69397163     0.61800
H1736       H  0.12620948  0.62097445  0.65458756     0.12500
H1737       H  0.17230564  0.73954371  0.62674773     0.12500
C1738       C  0.11173117  0.72449433  0.59052225     0.62000
F1739       F  0.17013138  0.60329050  0.69438317    -0.23200
F1740       F  0.17570349  0.65240544  0.72578303    -0.20500
F1741       F  0.21936773  0.63528326  0.68943695    -0.20200
F1742       F  0.07823777  0.73119870  0.60297955    -0.20200
F1743       F  0.10929527  0.70768956  0.55856172    -0.20500
F1744       F  0.12860712  0.75632207  0.58559854    -0.23200
C1745       C  0.94461420  0.66375875  0.67054490    -0.06100
C1746       C  0.93199888  0.69567220  0.65745091    -0.00100
C1747       C  0.94831615  0.71149960  0.62831482    -0.08700
C1748       C  0.97852549  0.69545565  0.61446607    -0.06100
C1749       C  0.99142109  0.66398903  0.62827831    -0.00100
C1750       C  0.97371812  0.64705580  0.65578571    -0.08600
C1751       C  0.98571431  0.61181382  0.66958455     0.61800
H1752       H  0.93135674  0.65200552  0.69270695     0.12500
H1753       H  0.99254642  0.70742120  0.59291288     0.12500
C1754       C  0.93447271  0.74515183  0.61250628     0.62000
F1755       F  0.96323716  0.59906714  0.69507843    -0.23200
F1756       F  0.01898354  0.61501953  0.68381288    -0.20500
F1757       F  0.98658462  0.58763980  0.64260464    -0.20200
F1758       F  0.93283703  0.77109693  0.63775127    -0.20200
F1759       F  0.90120426  0.73936964  0.59907411    -0.20500
F1760       F  0.95580907  0.75701396  0.58565813    -0.23200
C1761       C  0.14726732  0.89914116  0.76386356    -0.06100
C1762       C  0.11637263  0.88850810  0.74664948    -0.00100
C1763       C  0.11632577  0.85506779  0.72952418    -0.08700
C1764       C  0.14606585  0.83306584  0.73240449    -0.06100
C1765       C  0.17674058  0.84349537  0.74993748    -0.00100
C1766       C  0.17759860  0.87756802  0.76545789    -0.08600
C1767       C  0.21015820  0.89128991  0.78406012     0.61800
H1768       H  0.14737569  0.92459821  0.77645692     0.12500
H1769       H  0.14581065  0.80741722  0.72015909     0.12500
C1770       C  0.08580552  0.84258575  0.70688857     0.62000
F1771       F  0.20354862  0.92224780  0.80184849    -0.23200
F1772       F  0.23638891  0.89787576  0.75990563    -0.20500
F1773       F  0.22188303  0.86695466  0.80806134    -0.20200
F1774       F  0.07482458  0.86937628  0.68521863    -0.20200
F1775       F  0.05812151  0.83166342  0.72765567    -0.20500
F1776       F  0.09533952  0.81459989  0.68577562    -0.23200
C1777       C  0.98727967  0.86816737  0.78238227    -0.06100
C1778       C  0.98862641  0.89395882  0.75621803    -0.00100
C1779       C  0.96155003  0.89488157  0.73083412    -0.08700
C1780       C  0.93453071  0.86937301  0.73220659    -0.06100
C1781       C  0.93412347  0.84252022  0.75743560    -0.00100
C1782       C  0.96055008  0.84244126  0.78357917    -0.08600
C1783       C  0.96070356  0.81556256  0.81276265     0.61800
H1784       H  0.00836700  0.86758569  0.80138523     0.12500
H1785       H  0.91386407  0.86957084  0.71275296     0.12500
C1786       C  0.96203239  0.92151743  0.70149123     0.62000
F1787       F  0.98568977  0.82338368  0.83793784    -0.23200
F1788       F  0.96832413  0.78279140  0.79924227    -0.20500
F1789       F  0.92818064  0.81468551  0.82898086    -0.20200
F1790       F  0.99266448  0.91797988  0.68229296    -0.20200
F1791       F  0.96035479  0.95504277  0.71523530    -0.20500
F1792       F  0.93381496  0.91715291  0.67901005    -0.23200
C1793       C  0.08767300  0.37277464  0.48314265    -0.06100
C1794       C  0.05555867  0.36517014  0.46657233    -0.00100
C1795       C  0.02403833  0.37302034  0.48457028    -0.08700
C1796       C  0.02541164  0.37475877  0.52103305    -0.06100
C1797       C  0.05778523  0.37210737  0.53857466    -0.00100
C1798       C  0.08894093  0.37805480  0.51925690    -0.08600
C1799       C  0.12376835  0.38811520  0.53560687     0.61800
H1800       H  0.11214074  0.37181407  0.46864109     0.12500
H1801       H  0.00098480  0.37455087  0.53548793     0.12500
C1802       C  0.98903558  0.37788177  0.46642423     0.62000
F1803       F  0.13706858  0.41728743  0.51868744    -0.23200
F1804       F  0.14738297  0.36079054  0.53199234    -0.20500
F1805       F  0.12026211  0.39660747  0.57058498    -0.20200
F1806       F  0.97035563  0.34674016  0.46628146    -0.20200
F1807       F  0.99394074  0.38926647  0.43247574    -0.20500
F1808       F  0.96939774  0.40305421  0.48374440    -0.23200
C1809       C  0.15237475  0.31508243  0.61614751    -0.06100
C1810       C  0.12156209  0.29482251  0.61858465    -0.00100
C1811       C  0.12352502  0.26037506  0.63254917    -0.08700
C1812       C  0.15501414  0.24976030  0.64829042    -0.06100
C1813       C  0.18475084  0.27140563  0.64852074    -0.00100
C1814       C  0.18428685  0.30376038  0.63050486    -0.08600
C1815       C  0.21662907  0.32710176  0.62796601     0.61800
H1816       H  0.15095752  0.34077308  0.60434248     0.12500
H1817       H  0.15630182  0.22470863  0.66154782     0.12500
C1818       C  0.09286203  0.23485139  0.63230463     0.62000
F1819       F  0.20972986  0.35802554  0.61038792    -0.23200
F1820       F  0.24294607  0.30974688  0.60998373    -0.20500
F1821       F  0.22831034  0.33564980  0.66108202    -0.20200
F1822       F  0.07401434  0.23745773  0.60153302    -0.20200
F1823       F  0.07126591  0.24176817  0.66054348    -0.20500
F1824       F  0.10440792  0.20052302  0.63478604    -0.23200
C1825       C  0.99154797  0.26918090  0.63398290    -0.06100
C1826       C  0.99300429  0.30504973  0.62600154    -0.00100
C1827       C  0.96256727  0.32607497  0.63073294    -0.08700
C1828       C  0.93188735  0.31002519  0.64362002    -0.06100
C1829       C  0.93148294  0.27464353  0.65342498    -0.00100
C1830       C  0.96166293  0.25364971  0.64840315    -0.08600
C1831       C  0.96447004  0.21515959  0.65824588     0.61800
H1832       H  0.01427485  0.25284569  0.62931902     0.12500
H1833       H  0.90850757  0.32556331  0.64832464     0.12500
C1834       C  0.96265699  0.36538545  0.62428359     0.62000
F1835       F  0.97398510  0.19585677  0.62910202    -0.23200
F1836       F  0.93351651  0.20121122  0.67105743    -0.20500
F1837       F  0.99031336  0.21139537  0.68338686    -0.20200
F1838       F  0.96424830  0.37187699  0.58889308    -0.20200
F1839       F  0.99121946  0.38077542  0.64074434    -0.20500
F1840       F  0.93251490  0.38125069  0.63697456    -0.23200
C1841       C  0.12782687  0.10446441  0.78371847    -0.06100
C1842       C  0.12247780  0.08082542  0.75589312    -0.00100
C1843       C  0.14546307  0.08233174  0.72677332    -0.08700
C1844       C  0.17319015  0.10719794  0.72671006    -0.06100
C1845       C  0.17776218  0.13163209  0.75400006    -0.00100
C1846       C  0.15488206  0.12998895  0.78326262    -0.08600
C1847       C  0.15882930  0.15510679  0.81388613     0.61800
H1848       H  0.10973805  0.10348004  0.80555006     0.12500
H1849       H  0.19112076  0.10837605  0.70474177     0.12500
C1850       C  0.13973704  0.05882811  0.69525159     0.62000
F1851       F  0.13763810  0.14567350  0.84175425    -0.23200
F1852       F  0.14960778  0.18856720  0.80364928    -0.20500
F1853       F  0.19321745  0.15537169  0.82542782    -0.20200
F1854       F  0.16305833  0.06642672  0.66851548    -0.20200
F1855       F  0.10596294  0.06326067  0.68257571    -0.20500
F1856       F  0.14436738  0.02418726  0.70470581    -0.23200
C1857       C  0.95980478  0.13327189  0.78001865    -0.06100
C1858       C  0.93545187  0.13021595  0.75269474    -0.00100
C1859       C  0.94003076  0.10278978  0.72771788    -0.08700
C1860       C  0.96916749  0.07983054  0.73094783    -0.06100
C1861       C  0.99401701  0.08351314  0.75789397    -0.00100
C1862       C  0.98889232  0.11051796  0.78318482    -0.08600
C1863       C  0.01395088  0.11560883  0.81366366     0.61800
H1864       H  0.95590451  0.15400875  0.79902764     0.12500
H1865       H  0.97336792  0.05936324  0.71172827     0.12500
C1866       C  0.91508235  0.09843529  0.69700746     0.62000
F1867       F  0.00018664  0.13800370  0.83870522    -0.23200
F1868       F  0.04514277  0.13002043  0.80191631    -0.20500
F1869       F  0.02057436  0.08376581  0.82953961    -0.20200
F1870       F  0.91075978  0.13018870  0.68022947    -0.20200
F1871       F  0.88280284  0.08650855  0.70869411    -0.20500
F1872       F  0.92765588  0.07456073  0.67272792    -0.23200
C1873       C  0.43803334  0.07877418  0.32842334    -0.06100
C1874       C  0.43522486  0.04737938  0.30933300    -0.00100
C1875       C  0.42082075  0.04826360  0.27498210    -0.08700
C1876       C  0.40624292  0.07985793  0.26297894    -0.06100
C1877       C  0.40734707  0.11053591  0.28316321    -0.00100
C1878       C  0.42485334  0.11053011  0.31568651    -0.08600
C1879       C  0.42865161  0.14366282  0.33736963     0.61800
H1880       H  0.44978071  0.07815641  0.35413139     0.12500
H1881       H  0.39299245  0.08068247  0.23793964     0.12500
C1882       C  0.42100771  0.01674555  0.25056332     0.62000
F1883       F  0.44523864  0.13752174  0.36892450    -0.23200
F1884       F  0.39587310  0.15765526  0.34435858    -0.20500
F1885       F  0.44862043  0.16771105  0.31907073    -0.20200
F1886       F  0.39569293  0.99279998  0.26083832    -0.20200
F1887       F  0.45383767  0.00116070  0.25072729    -0.20500
F1888       F  0.41380899  0.02628392  0.21643795    -0.23200
C1889       C  0.43094888  0.91571466  0.28447259    -0.06100
C1890       C  0.43356216  0.91922446  0.32093085    -0.00100
C1891       C  0.42517989  0.89028417  0.34266047    -0.08700
C1892       C  0.41174738  0.85977206  0.32693152    -0.06100
C1893       C  0.40684373  0.85762132  0.29080730    -0.00100
C1894       C  0.41791173  0.88508052  0.26893173    -0.08600
C1895       C  0.41664623  0.88147923  0.22949559     0.61800
H1896       H  0.43917888  0.93728500  0.26812071     0.12500
H1897       H  0.40395490  0.83758612  0.34278805     0.12500
C1898       C  0.42980401  0.89132667  0.38200973     0.62000
F1899       F  0.43122169  0.91032806  0.21299401    -0.23200
F1900       F  0.38222089  0.87794056  0.21838170    -0.20500
F1901       F  0.43548948  0.85211773  0.21955365    -0.20200
F1902       F  0.41472956  0.92131786  0.39577205    -0.20200
F1903       F  0.46525493  0.89076539  0.38989449    -0.20500
F1904       F  0.41420205  0.86272679  0.39802225    -0.23200
C1905       C  0.33615646  0.08287724  0.14362459    -0.06100
C1906       C  0.30748528  0.10584862  0.14294682    -0.00100
C1907       C  0.28023503  0.10011676  0.11825055    -0.08700
C1908       C  0.28267267  0.07142114  0.09486543    -0.06100
C1909       C  0.31121067  0.04812378  0.09583861    -0.00100
C1910       C  0.33865946  0.05420473  0.12037375    -0.08600
C1911       C  0.37052717  0.03040347  0.12259080     0.61800
H1912       H  0.35672185  0.08753831  0.16268498     0.12500
H1913       H  0.26168141  0.06625869  0.07642887     0.12500
C1914       C  0.24789703  0.12324146  0.11807077     0.62000
F1915       F  0.39842101  0.04710449  0.13896801    -0.23200
F1916       F  0.38167935  0.02066923  0.08956307    -0.20500
F1917       F  0.36198041  0.00073202  0.14147008    -0.20200
F1918       F  0.25689153  0.15674891  0.10765297    -0.20200
F1919       F  0.23391889  0.12451057  0.15133346    -0.20500
F1920       F  0.22216216  0.11062601  0.09573062    -0.23200
C1921       C  0.28326310  0.91891343  0.12165431    -0.06100
C1922       C  0.30785808  0.92033758  0.09414748    -0.00100
C1923       C  0.33280797  0.89289175  0.09112335    -0.08700
C1924       C  0.33243466  0.86537221  0.11599550    -0.06100
C1925       C  0.30825583  0.86438350  0.14402135    -0.00100
C1926       C  0.28256638  0.89134683  0.14629006    -0.08600
C1927       C  0.25338475  0.89041646  0.17348747     0.61800
H1928       H  0.26442144  0.94007518  0.12382415     0.12500
H1929       H  0.35165060  0.84453215  0.11407227     0.12500
C1930       C  0.36061706  0.89340214  0.06269272     0.62000
F1931       F  0.22934774  0.91720896  0.16878768    -0.23200
F1932       F  0.26727241  0.89408776  0.20664007    -0.20500
F1933       F  0.23539451  0.85890415  0.17106832    -0.20200
F1934       F  0.38048060  0.92373553  0.06539960    -0.20200
F1935       F  0.34466643  0.89222466  0.03029325    -0.20500
F1936       F  0.38315628  0.86503016  0.06502278    -0.23200
C1937       C  0.69743652  0.04595954  0.72515699    -0.06100
C1938       C  0.66235994  0.05069286  0.71498312    -0.00100
C1939       C  0.64790890  0.08491733  0.71631702    -0.08700
C1940       C  0.67054846  0.11347282  0.72297495    -0.06100
C1941       C  0.70644048  0.10887600  0.73080392    -0.00100
C1942       C  0.71948211  0.07388749  0.73435616    -0.08600
C1943       C  0.75621833  0.06473946  0.74761226     0.61800
H1944       H  0.70828151  0.01974932  0.72460950     0.12500
H1945       H  0.65969699  0.13970704  0.72241111     0.12500
C1946       C  0.60907856  0.09307213  0.71311586     0.62000
F1947       F  0.75984869  0.02923912  0.75433190    -0.23200
F1948       F  0.76294307  0.08224306  0.77855305    -0.20500
F1949       F  0.78120540  0.07348939  0.72293059    -0.20200
F1950       F  0.58833787  0.06345464  0.70997179    -0.20200
F1951       F  0.60371523  0.11435863  0.68449903    -0.20500
F1952       F  0.59828919  0.11095648  0.74274745    -0.23200
C1953       C  0.69183041  0.92764430  0.73396344    -0.06100
C1954       C  0.66225563  0.92388747  0.71207341    -0.00100
C1955       C  0.65170681  0.88952827  0.70211033    -0.08700
C1956       C  0.67401993  0.86125790  0.70994488    -0.06100
C1957       C  0.70549762  0.86569204  0.72861434    -0.00100
C1958       C  0.71344151  0.89925312  0.74282399    -0.08600
C1959       C  0.74411750  0.90556862  0.76764094     0.61800
H1960       H  0.69921895  0.95350635  0.74305778     0.12500
H1961       H  0.66724085  0.83538535  0.70062836     0.12500
C1962       C  0.61766754  0.88191188  0.68292507     0.62000
F1963       F  0.74233348  0.93822539  0.78347142    -0.23200
F1964       F  0.77561995  0.90397225  0.74962292    -0.20500
F1965       F  0.74371752  0.88067021  0.79383357    -0.20200
F1966       F  0.62235465  0.88837612  0.64781452    -0.20200
F1967       F  0.59063512  0.90238009  0.69598061    -0.20500
F1968       F  0.60763920  0.84717546  0.68665071    -0.23200
C1969       C  0.78314591  0.07237264  0.90238574    -0.06100
C1970       C  0.81448209  0.05386433  0.90820338    -0.00100
C1971       C  0.84528452  0.06452912  0.88982500    -0.08700
C1972       C  0.84312455  0.09190433  0.86501967    -0.06100
C1973       C  0.81169376  0.11012290  0.85892323    -0.00100
C1974       C  0.78135621  0.10056358  0.87845170    -0.08600
C1975       C  0.74683015  0.11939946  0.87290602     0.61800
H1976       H  0.75969492  0.06389068  0.91607890     0.12500
H1977       H  0.86653439  0.09962258  0.85074625     0.12500
C1978       C  0.88121298  0.04828761  0.89553844     0.62000
F1979       F  0.71919598  0.10308211  0.88995924    -0.23200
F1980       F  0.73922212  0.11997758  0.83765968    -0.20500
F1981       F  0.74945427  0.15334760  0.88540221    -0.20200
F1982       F  0.89150263  0.03097565  0.86546976    -0.20200
F1983       F  0.88190941  0.02499445  0.92310913    -0.20500
F1984       F  0.90539778  0.07451816  0.90265953    -0.23200
C1985       C  0.82784147  0.89308851  0.84885992    -0.06100
C1986       C  0.80718493  0.86429164  0.85880722    -0.00100
C1987       C  0.78952562  0.86578036  0.89174548    -0.08700
C1988       C  0.79319698  0.89618835  0.91286184    -0.06100
C1989       C  0.81320167  0.92535592  0.90232326    -0.00100
C1990       C  0.83146066  0.92334361  0.86975110    -0.08600
C1991       C  0.85583984  0.95221841  0.85689998     0.61800
H1992       H  0.84154991  0.89169925  0.82411167     0.12500
H1993       H  0.77945652  0.89784461  0.93758008     0.12500
C1994       C  0.76535584  0.83654111  0.90414921     0.62000
F1995       F  0.87591275  0.94155781  0.82859625    -0.23200
F1996       F  0.87879120  0.96169047  0.88328239    -0.20500
F1997       F  0.83643185  0.98091239  0.84636284    -0.20200
F1998       F  0.78450765  0.80647575  0.91061364    -0.20200
F1999       F  0.74022187  0.82985767  0.87894369    -0.20500
F2000       F  0.74794163  0.84531316  0.93471951    -0.23200
C2001       C  0.35049587  0.36528787  0.06907106    -0.06100
C2002       C  0.38685062  0.36337405  0.06304269    -0.00100
C2003       C  0.40894145  0.34629776  0.08726184    -0.08700
C2004       C  0.39337635  0.33059152  0.11664740    -0.06100
C2005       C  0.35682353  0.33120943  0.12170273    -0.00100
C2006       C  0.33494087  0.34891523  0.09790005    -0.08600
C2007       C  0.29529822  0.34861179  0.10198514     0.61800
H2008       H  0.33416847  0.37856998  0.05013120     0.12500
H2009       H  0.40945495  0.31669038  0.13534816     0.12500
C2010       C  0.44831717  0.34351003  0.08132649     0.62000
F2011       F  0.27874539  0.36789355  0.07622527    -0.23200
F2012       F  0.28610930  0.36263411  0.13406368    -0.20500
F2013       F  0.28336723  0.31442436  0.09982962    -0.20200
F2014       F  0.46336193  0.37650872  0.08324438    -0.20200
F2015       F  0.45493015  0.32918058  0.04874250    -0.20500
F2016       F  0.46427408  0.32243876  0.10603988    -0.23200
C2017       C  0.39330150  0.36667022  0.90480216    -0.06100
C2018       C  0.37413699  0.36439343  0.93612316    -0.00100
C2019       C  0.34012633  0.34855120  0.93569843    -0.08700
C2020       C  0.32784676  0.33368701  0.90434154    -0.06100
C2021       C  0.34796761  0.33434305  0.87373421    -0.00100
C2022       C  0.38090603  0.35174360  0.87355996    -0.08600
C2023       C  0.40382934  0.35264065  0.84111704     0.61800
H2024       H  0.41894801  0.37902186  0.90522711     0.12500
H2025       H  0.30276966  0.32011973  0.90372898     0.12500
C2026       C  0.31659678  0.34681765  0.96779179     0.62000
F2027       F  0.43628832  0.36795823  0.84739065    -0.23200
F2028       F  0.38728639  0.37166831  0.81525736    -0.20500
F2029       F  0.40954912  0.31882939  0.82951133    -0.20200
F2030       F  0.31446572  0.37954243  0.98334142    -0.20200
F2031       F  0.32988630  0.32277276  0.99127196    -0.20500
F2032       F  0.28269612  0.33640166  0.95944823    -0.23200
C2033       C  0.14807089  0.21848081  0.08745237    -0.06100
C2034       C  0.15753791  0.23788687  0.05778084    -0.00100
C2035       C  0.19100923  0.25511841  0.05766748    -0.08700
C2036       C  0.21414864  0.25042976  0.08606972    -0.06100
C2037       C  0.20468072  0.23136274  0.11582520    -0.00100
C2038       C  0.17075217  0.21516124  0.11664391    -0.08600
C2039       C  0.15823393  0.19402445  0.14785644     0.61800
H2040       H  0.12264462  0.20561768  0.08752850     0.12500
H2041       H  0.23980424  0.26278112  0.08563589     0.12500
C2042       C  0.20246797  0.27974061  0.02857032     0.62000
F2043       F  0.12884163  0.17399685  0.13992278    -0.23200
F2044       F  0.14953033  0.21643513  0.17493912    -0.20500
F2045       F  0.18429557  0.17143128  0.15874699    -0.20200
F2046       F  0.17469368  0.30073274  0.01837717    -0.20200
F2047       F  0.21453919  0.26056158  0.00030547    -0.20500
F2048       F  0.22937098  0.30182541  0.03935982    -0.23200
C2049       C  0.17353980  0.25746101  0.87684035    -0.06100
C2050       C  0.20263357  0.23442297  0.87725064    -0.00100
C2051       C  0.20491244  0.20961609  0.90477805    -0.08700
C2052       C  0.17849476  0.20918366  0.93069913    -0.06100
C2053       C  0.15027496  0.23302469  0.93115435    -0.00100
C2054       C  0.14753462  0.25750126  0.90348785    -0.08600
C2055       C  0.11778298  0.28392206  0.90240323     0.61800
H2056       H  0.17166336  0.27606419  0.85562376     0.12500
H2057       H  0.18058915  0.19092293  0.95219537     0.12500
C2058       C  0.23536364  0.18400876  0.90772458     0.62000
F2059       F  0.12131807  0.30698066  0.87473594    -0.23200
F2060       F  0.11719993  0.30339491  0.93293852    -0.20500
F2061       F  0.08611707  0.26638737  0.89869093    -0.20200
F2062       F  0.26578997  0.20215362  0.91599186    -0.20200
F2063       F  0.24004874  0.16616322  0.87662973    -0.20500
F2064       F  0.22965708  0.15927995  0.93352871    -0.23200
C2065       C  0.77235246  0.61436523  0.06883854    -0.06100
C2066       C  0.73559570  0.61122289  0.06571407    -0.00100
C2067       C  0.71373595  0.62093366  0.09423308    -0.08700
C2068       C  0.72969922  0.63477035  0.12445927    -0.06100
C2069       C  0.76619413  0.63960660  0.12647271    -0.00100
C2070       C  0.78805076  0.62862542  0.09884617    -0.08600
C2071       C  0.82771338  0.63260473  0.10115954     0.61800
H2072       H  0.78878802  0.60607930  0.04727520     0.12500
H2073       H  0.71370687  0.64346300  0.14625109     0.12500
C2074       C  0.67384125  0.61886128  0.09217215     0.62000
F2075       F  0.84465407  0.61566201  0.07393193    -0.23200
F2076       F  0.83959719  0.61832790  0.13214345    -0.20500
F2077       F  0.83664841  0.66777393  0.10015047    -0.20200
F2078       F  0.66312984  0.58434388  0.08918247    -0.20200
F2079       F  0.66214422  0.63759220  0.06357918    -0.20500
F2080       F  0.65793283  0.63264827  0.12169126    -0.23200
C2081       C  0.72164724  0.60574808  0.90750673    -0.06100
C2082       C  0.74287936  0.60667598  0.93755808    -0.00100
C2083       C  0.77799879  0.61922616  0.93497205    -0.08700
C2084       C  0.78900051  0.63428145  0.90344412    -0.06100
C2085       C  0.76680990  0.63560721  0.87435424    -0.00100
C2086       C  0.73314751  0.61983464  0.87566814    -0.08600
C2087       C  0.70892381  0.61939335  0.84417762     0.61800
H2088       H  0.69526798  0.59522231  0.90946318     0.12500
H2089       H  0.81479203  0.64634435  0.90163332     0.12500
C2090       C  0.80396937  0.61739167  0.96499710     0.62000
F2091       F  0.67705911  0.60325683  0.85132659    -0.23200
F2092       F  0.72475319  0.60114615  0.81719539    -0.20500
F2093       F  0.70213929  0.65335571  0.83368162    -0.20200
F2094       F  0.80176242  0.58512775  0.98130267    -0.20200
F2095       F  0.79691419  0.64387624  0.98871538    -0.20500
F2096       F  0.83828595  0.62142940  0.95348803    -0.23200
C2097       C  0.94918167  0.73087399  0.12363387    -0.06100
C2098       C  0.91493666  0.74471623  0.12008185    -0.00100
C2099       C  0.90638751  0.76134278  0.08788854    -0.08700
C2100       C  0.93146352  0.76130274  0.06059139    -0.06100
C2101       C  0.96459483  0.74481025  0.06322961    -0.00100
C2102       C  0.97375104  0.72966248  0.09580361    -0.08600
C2103       C  0.00838254  0.71067757  0.10108201     0.61800
H2104       H  0.95657110  0.72013674  0.14853430     0.12500
H2105       H  0.92478910  0.77375468  0.03614102     0.12500
C2106       C  0.87144770  0.77986656  0.08188622     0.62000
F2107       F  0.01086882  0.69602578  0.13402198    -0.23200
F2108       F  0.03611917  0.73386761  0.09727119    -0.20500
F2109       F  0.01133792  0.68383925  0.07687480    -0.20200
F2110       F  0.86571499  0.80417242  0.10815182    -0.20200
F2111       F  0.84428339  0.75567691  0.08119828    -0.20500
F2112       F  0.87077432  0.79768614  0.05043691    -0.23200
C2113       C  0.96058003  0.71195256  0.91481146    -0.06100
C2114       C  0.96316890  0.74213531  0.93581690    -0.00100
C2115       C  0.93975580  0.77050148  0.92902879    -0.08700
C2116       C  0.91387041  0.76693905  0.90267564    -0.06100
C2117       C  0.91131282  0.73681099  0.88163935    -0.00100
C2118       C  0.93534951  0.70889644  0.88766473    -0.08600
C2119       C  0.93367863  0.67546632  0.86608955     0.61800
H2120       H  0.97800714  0.69027106  0.92044622     0.12500
H2121       H  0.89616454  0.78860957  0.89764863     0.12500
C2122       C  0.94150712  0.80572512  0.94768485     0.62000
F2123       F  0.95540564  0.64963890  0.87929285    -0.23200
F2124       F  0.94426422  0.68234214  0.83227670    -0.20500
F2125       F  0.89962651  0.66256446  0.86584150    -0.20200
F2126       F  0.96894641  0.80839123  0.97119220    -0.20200
F2127       F  0.91028486  0.81150002  0.96535192    -0.20500
F2128       F  0.94597028  0.83193128  0.92316037    -0.23200
C2129       C  0.54126075  0.01902596  0.60418654    -0.06100
C2130       C  0.52302488  0.98702360  0.60543533    -0.00100
C2131       C  0.54292409  0.95592989  0.60219260    -0.08700
C2132       C  0.57800316  0.95700881  0.61337388    -0.06100
C2133       C  0.59354558  0.98902905  0.62340558    -0.00100
C2134       C  0.57737640  0.02016925  0.61140145    -0.08600
C2135       C  0.59663167  0.05432669  0.60549661     0.61800
H2136       H  0.52702078  0.04336084  0.60097216     0.12500
H2137       H  0.59192464  0.93269114  0.61684729     0.12500
C2138       C  0.52723586  0.92152612  0.58992993     0.62000
F2139       F  0.59112875  0.06491261  0.57140866    -0.23200
F2140       F  0.63252800  0.05119607  0.61034125    -0.20500
F2141       F  0.58349484  0.07971161  0.62770283    -0.20200
F2142       F  0.49637305  0.92703862  0.57155775    -0.20200
F2143       F  0.52050046  0.90008772  0.61822375    -0.20500
F2144       F  0.55059948  0.90469530  0.56782478    -0.23200
C2145       C  0.41251923  0.10894186  0.67243327    -0.06100
C2146       C  0.40288583  0.10728338  0.70770421    -0.00100
C2147       C  0.40948914  0.07670077  0.72724471    -0.08700
C2148       C  0.42493619  0.04794144  0.71023300    -0.06100
C2149       C  0.43369902  0.04904509  0.67454396    -0.00100
C2150       C  0.42780143  0.08016041  0.65525841    -0.08600
C2151       C  0.43662436  0.08290235  0.61667025     0.61800
H2152       H  0.40690866  0.13277188  0.65814424     0.12500
H2153       H  0.42983031  0.02405758  0.72465821     0.12500
C2154       C  0.40033579  0.07463692  0.76579525     0.62000
F2155       F  0.42323281  0.11319550  0.60200668    -0.23200
F2156       F  0.42262736  0.05465887  0.59857886    -0.20500
F2157       F  0.47273643  0.08348958  0.61251808    -0.20200
F2158       F  0.36423469  0.07524526  0.77012858    -0.20200
F2159       F  0.41494300  0.10286957  0.78327424    -0.20500
F2160       F  0.41304606  0.04427263  0.78091625    -0.23200
C2161       C  0.44951457  0.90252189  0.69166323    -0.06100
C2162       C  0.43091330  0.92169532  0.66655590    -0.00100
C2163       C  0.39737190  0.91059670  0.65539723    -0.08700
C2164       C  0.38253730  0.88103463  0.67116754    -0.06100
C2165       C  0.40018837  0.86268413  0.69767236    -0.00100
C2166       C  0.43454541  0.87291567  0.70774274    -0.08600
C2167       C  0.45441563  0.85396330  0.73638989     0.61800
H2168       H  0.47532083  0.91176778  0.69946608     0.12500
H2169       H  0.35662891  0.87220077  0.66318287     0.12500
C2170       C  0.37762518  0.92988272  0.62682438     0.62000
F2171       F  0.46196296  0.82007371  0.72590348    -0.23200
F2172       F  0.43419243  0.85307343  0.76640867    -0.20500
F2173       F  0.48591080  0.87045036  0.74432097    -0.20200
F2174       F  0.39798183  0.93077079  0.59687811    -0.20200
F2175       F  0.37044026  0.96383903  0.63735488    -0.20500
F2176       F  0.34598525  0.91371916  0.61875044    -0.23200
C2177       C  0.28210414  0.05114229  0.87580672    -0.06100
C2178       C  0.30316541  0.05225832  0.90605867    -0.00100
C2179       C  0.32544383  0.08167891  0.91121792    -0.08700
C2180       C  0.32587207  0.10867988  0.88580051    -0.06100
C2181       C  0.30557306  0.10692271  0.85489389    -0.00100
C2182       C  0.28308065  0.07746595  0.85001032    -0.08600
C2183       C  0.25979748  0.07352850  0.81794585     0.61800
H2184       H  0.26536054  0.02844588  0.87193512     0.12500
H2185       H  0.34284134  0.13121814  0.88960311     0.12500
C2186       C  0.34962251  0.08390901  0.94264756     0.62000
F2187       F  0.23727612  0.04507449  0.82047862    -0.23200
F2188       F  0.28038483  0.06862268  0.78854212    -0.20500
F2189       F  0.23940173  0.10316766  0.81396119    -0.20200
F2190       F  0.37099620  0.05460650  0.94381076    -0.20200
F2191       F  0.32973552  0.08569086  0.97284944    -0.20500
F2192       F  0.37110140  0.11325385  0.94150056    -0.23200
C2193       C  0.29226129  0.86597804  0.88395913    -0.06100
C2194       C  0.30784390  0.87028348  0.85076703    -0.00100
C2195       C  0.32453104  0.90269764  0.84310168    -0.08700
C2196       C  0.32531973  0.92910174  0.86904588    -0.06100
C2197       C  0.30919666  0.92515149  0.90208017    -0.00100
C2198       C  0.29203295  0.89294953  0.90949975    -0.08600
C2199       C  0.27236966  0.88736909  0.94352620     0.61800
H2200       H  0.27952570  0.84119626  0.88957686     0.12500
H2201       H  0.33827213  0.95373087  0.86331090     0.12500
C2202       C  0.34187908  0.90958305  0.80794884     0.62000
F2203       F  0.25452194  0.85568554  0.94391428    -0.23200
F2204       F  0.24792619  0.91380612  0.94825306    -0.20500
F2205       F  0.29586394  0.88747309  0.97105111    -0.20200
F2206       F  0.31667239  0.90993198  0.78193766    -0.20200
F2207       F  0.36636704  0.88375387  0.80081475    -0.20500
F2208       F  0.35907880  0.94162966  0.80720625    -0.23200
C2209       C  0.53509844  0.95559992  0.39380665    -0.06100
C2210       C  0.51878243  0.98795828  0.38755809    -0.00100
C2211       C  0.53918447  0.01878466  0.39176934    -0.08700
C2212       C  0.57578784  0.01590743  0.38935056    -0.06100
C2213       C  0.59204034  0.98301625  0.38604687    -0.00100
C2214       C  0.57181475  0.95252356  0.39387944    -0.08600
C2215       C  0.58752055  0.91646582  0.39991000     0.61800
H2216       H  0.51930466  0.93198721  0.39460807     0.12500
H2217       H  0.59140889  0.03966830  0.38768211     0.12500
C2218       C  0.52353909  0.05472375  0.39759516     0.62000
F2219       F  0.56412783  0.89486324  0.41745297    -0.23200
F2220       F  0.61736051  0.91935113  0.42032066    -0.20500
F2221       F  0.59559584  0.90059101  0.36838263    -0.20200
F2222       F  0.49053384  0.05219832  0.41263156    -0.20200
F2223       F  0.52133279  0.07241998  0.36623897    -0.20500
F2224       F  0.54471930  0.07388113  0.42013182    -0.23200
C2225       C  0.67650020  0.07388371  0.33229040    -0.06100
C2226       C  0.68095552  0.04232373  0.31375406    -0.00100
C2227       C  0.69816772  0.04289770  0.28062605    -0.08700
C2228       C  0.71178014  0.07489244  0.26861618    -0.06100
C2229       C  0.70871994  0.10585462  0.28807405    -0.00100
C2230       C  0.69033034  0.10572221  0.32018841    -0.08600
C2231       C  0.68694005  0.13850348  0.34254750     0.61800
H2232       H  0.66307686  0.07328031  0.35722071     0.12500
H2233       H  0.72622365  0.07586380  0.24422254     0.12500
C2234       C  0.70268212  0.01056110  0.25760523     0.62000
F2235       F  0.67133024  0.13163245  0.37449419    -0.23200
F2236       F  0.66661628  0.16303422  0.32543101    -0.20500
F2237       F  0.71985927  0.15242452  0.34889035    -0.20200
F2238       F  0.67085517  0.99332184  0.25383641    -0.20200
F2239       F  0.72722583  0.98824184  0.27215736    -0.20500
F2240       F  0.71442578  0.01919575  0.22444561    -0.23200
C2241       C  0.72173395  0.86611348  0.33164975    -0.06100
C2242       C  0.71408577  0.85697159  0.29698662    -0.00100
C2243       C  0.68941011  0.87613054  0.27739186    -0.08700
C2244       C  0.67379581  0.90533798  0.29309053    -0.06100
C2245       C  0.68273464  0.91543573  0.32711980    -0.00100
C2246       C  0.70614164  0.89537724  0.34730167    -0.08600
C2247       C  0.71487768  0.90532490  0.38469882     0.61800
H2248       H  0.74067651  0.85059185  0.34600372     0.12500
H2249       H  0.65562058  0.92148295  0.27846894     0.12500
C2250       C  0.68157242  0.86717262  0.23959704     0.62000
F2251       F  0.74042584  0.88374442  0.39873630    -0.23200
F2252       F  0.68494673  0.90243493  0.40496666    -0.20500
F2253       F  0.72708483  0.93950599  0.38618154    -0.20200
F2254       F  0.66863713  0.83333619  0.23710801    -0.20200
F2255       F  0.71215701  0.86986744  0.22021016    -0.20500
F2256       F  0.65685133  0.88960987  0.22544442    -0.23200
C2257       C  0.83161537  0.06882235  0.09756618    -0.06100
C2258       C  0.80075545  0.04889337  0.09415514    -0.00100
C2259       C  0.77089445  0.05785392  0.11455124    -0.08700
C2260       C  0.77337679  0.08579668  0.13876138    -0.06100
C2261       C  0.80477550  0.10465207  0.14334598    -0.00100
C2262       C  0.83417078  0.09654925  0.12197266    -0.08600
C2263       C  0.86858386  0.11612469  0.12627260     0.61800
H2264       H  0.85427771  0.06140682  0.08206704     0.12500
H2265       H  0.75084505  0.09298383  0.15456580     0.12500
C2266       C  0.73652404  0.03796200  0.11055081     0.62000
F2267       F  0.89397687  0.10460854  0.10298568    -0.23200
F2268       F  0.88096378  0.11100779  0.15981068    -0.20500
F2269       F  0.86342521  0.15153382  0.12065105    -0.20200
F2270       F  0.74065854  0.00385190  0.12189513    -0.20200
F2271       F  0.72652225  0.03766122  0.07582124    -0.20500
F2272       F  0.70970180  0.05317658  0.12978363    -0.23200
C2273       C  0.83021155  0.92445320  0.12677043    -0.06100
C2274       C  0.81055371  0.92144485  0.09561502    -0.00100
C2275       C  0.79230714  0.88951471  0.08936047    -0.08700
C2276       C  0.79330875  0.86271150  0.11497723    -0.06100
C2277       C  0.81216039  0.86614525  0.14662052    -0.00100
C2278       C  0.83181020  0.89751546  0.15208698    -0.08600
C2279       C  0.85526330  0.90260493  0.18389663     0.61800
H2280       H  0.84435840  0.94870481  0.13139863     0.12500
H2281       H  0.77873142  0.83869195  0.11053916     0.12500
C2282       C  0.77104827  0.88388209  0.05633143     0.62000
F2283       F  0.87569304  0.93260955  0.18141175    -0.23200
F2284       F  0.87782859  0.87438525  0.18708729    -0.20500
F2285       F  0.83489238  0.90562290  0.21368744    -0.20200
F2286       F  0.75436704  0.85154963  0.05600497    -0.20200
F2287       F  0.79306468  0.88528633  0.02761894    -0.20500
F2288       F  0.74557041  0.90955945  0.05361045    -0.23200
C2289       C  0.66237360  0.46837841  0.97115564    -0.06100
C2290       C  0.66760589  0.45152093  0.00329138    -0.00100
C2291       C  0.66041699  0.47072196  0.03430267    -0.08700
C2292       C  0.66168439  0.50736908  0.03257376    -0.06100
C2293       C  0.66630844  0.52442359  0.00044766    -0.00100
C2294       C  0.65983920  0.50497915  0.96949602    -0.08600
C2295       C  0.65175762  0.52142495  0.93451075     0.61800
H2296       H  0.66310553  0.45347823  0.94701604     0.12500
H2297       H  0.66244057  0.52224540  0.05669929     0.12500
C2298       C  0.65445436  0.45389021  0.06958247     0.62000
F2299       F  0.62281554  0.50485906  0.91994827    -0.23200
F2300       F  0.68021519  0.51731586  0.91234941    -0.20500
F2301       F  0.64368054  0.55664371  0.93762019    -0.20200
F2302       F  0.68582266  0.45229366  0.08777237    -0.20200
F2303       F  0.64047866  0.42054132  0.06587884    -0.20500
F2304       F  0.63074945  0.47356788  0.08887777    -0.23200
C2305       C  0.76837975  0.37762613  0.08299614    -0.06100
C2306       C  0.73773369  0.36505587  0.06654549    -0.00100
C2307       C  0.71941195  0.33604935  0.08050177    -0.08700
C2308       C  0.73412663  0.31852667  0.10881924    -0.06100
C2309       C  0.76486470  0.33043128  0.12508503    -0.00100
C2310       C  0.78205851  0.36095567  0.11288406    -0.08600
C2311       C  0.81504171  0.37483440  0.13062839     0.61800
H2312       H  0.78170610  0.40016023  0.07196266     0.12500
H2313       H  0.72106069  0.29537570  0.11885181     0.12500
C2314       C  0.68492780  0.32176713  0.06617168     0.62000
F2315       F  0.82865567  0.40379048  0.11357103    -0.23200
F2316       F  0.84061034  0.34905619  0.13113116    -0.20500
F2317       F  0.80732208  0.38473139  0.16454877    -0.20200
F2318       F  0.66838299  0.34419544  0.04323878    -0.20200
F2319       F  0.66186149  0.31582233  0.09350590    -0.20500
F2320       F  0.69134024  0.29042108  0.04914540    -0.23200
C2321       C  0.77383803  0.36394639  0.93474655    -0.06100
C2322       C  0.73709168  0.36377323  0.93898276    -0.00100
C2323       C  0.71546878  0.34985270  0.91214565    -0.08700
C2324       C  0.73179446  0.33495433  0.88269819    -0.06100
C2325       C  0.76842549  0.33478456  0.87870675    -0.00100
C2326       C  0.78995292  0.34992961  0.90472619    -0.08600
C2327       C  0.82961382  0.35101934  0.90080353     0.61800
H2328       H  0.78990536  0.37500868  0.95539837     0.12500
H2329       H  0.71608095  0.32205835  0.86293118     0.12500
C2330       C  0.67561660  0.34892851  0.91517773     0.62000
F2331       F  0.84538265  0.36970417  0.92766200    -0.23200
F2332       F  0.83829117  0.36706880  0.86962893    -0.20500
F2333       F  0.84292039  0.31729952  0.90091030    -0.20200
F2334       F  0.66252261  0.38254628  0.91813736    -0.20200
F2335       F  0.66597849  0.32967109  0.94420358    -0.20500
F2336       F  0.66003743  0.33388429  0.88610844    -0.23200
C2337       C  0.96764603  0.21673413  0.09287089    -0.06100
C2338       C  0.96232818  0.24087755  0.06582167    -0.00100
C2339       C  0.93193813  0.26271901  0.06740510    -0.08700
C2340       C  0.90636014  0.25706002  0.09355620    -0.06100
C2341       C  0.91155707  0.23303319  0.12063353    -0.00100
C2342       C  0.94348076  0.21327551  0.12093252    -0.08600
C2343       C  0.95226169  0.18858003  0.15069468     0.61800
H2344       H  0.99071021  0.20016575  0.09156894     0.12500
H2345       H  0.88291296  0.27321743  0.09400658     0.12500
C2346       C  0.92586148  0.29328258  0.04284278     0.62000
F2347       F  0.98158114  0.16832301  0.14350692    -0.23200
F2348       F  0.92441065  0.16621401  0.15694845    -0.20500
F2349       F  0.95923667  0.20784009  0.18049405    -0.20200
F2350       F  0.89978913  0.28461951  0.01919162    -0.20200
F2351       F  0.95598924  0.30278875  0.02492217    -0.20500
F2352       F  0.91505784  0.32231358  0.06177698    -0.23200
C2353       C  0.90517548  0.21519567  0.90898755    -0.06100
C2354       C  0.91668425  0.23202192  0.87844811    -0.00100
C2355       C  0.95197789  0.24528183  0.87764984    -0.08700
C2356       C  0.97269164  0.24368815  0.90833189    -0.06100
C2357       C  0.96032638  0.22830733  0.93924083    -0.00100
C2358       C  0.92641432  0.21219245  0.93894499    -0.08600
C2359       C  0.91231577  0.19096067  0.96954367     0.61800
H2360       H  0.87897011  0.20401598  0.90934424     0.12500
H2361       H  0.99877402  0.25514486  0.90862368     0.12500
C2362       C  0.96825032  0.26134349  0.84508889     0.62000
F2363       F  0.88426865  0.16986908  0.95973101    -0.23200
F2364       F  0.90066578  0.21317857  0.99566736    -0.20500
F2365       F  0.93828831  0.16919537  0.98243415    -0.20200
F2366       F  0.94815897  0.28931402  0.83392978    -0.20200
F2367       F  0.97038419  0.23627124  0.81897547    -0.20500
F2368       F  0.00202997  0.27367888  0.85102770    -0.23200
C2369       C  0.45388338  0.50651745  0.96349026    -0.06100
C2370       C  0.45069491  0.52466417  0.99529395    -0.00100
C2371       C  0.45846045  0.50648626  0.02649644    -0.08700
C2372       C  0.45587176  0.46982505  0.02609886    -0.06100
C2373       C  0.45022571  0.45159134  0.99457949    -0.00100
C2374       C  0.45583354  0.46984416  0.96285312    -0.08600
C2375       C  0.46229352  0.45194475  0.92812297     0.61800
H2376       H  0.45213651  0.52052318  0.93897181     0.12500
H2377       H  0.45593399  0.45590138  0.05072274     0.12500
C2378       C  0.46790825  0.52471440  0.06042287     0.62000
F2379       F  0.48906311  0.46915718  0.91059014    -0.23200
F2380       F  0.43209479  0.45314619  0.90804275    -0.20500
F2381       F  0.47270650  0.41748027  0.93237493    -0.20200
F2382       F  0.43979553  0.52314210  0.08331195    -0.20200
F2383       F  0.47724250  0.55940540  0.05507644    -0.20500
F2384       F  0.49647527  0.50809407  0.07537952    -0.23200
C2385       C  0.39956693  0.62303084  0.08147508    -0.06100
C2386       C  0.37552791  0.60718868  0.05880065    -0.00100
C2387       C  0.33933813  0.60589557  0.06760701    -0.08700
C2388       C  0.32823378  0.62186949  0.09898679    -0.06100
C2389       C  0.35224934  0.63927598  0.12080069    -0.00100
C2390       C  0.38840404  0.63997501  0.11198292    -0.08600
C2391       C  0.41476963  0.66044210  0.13355672     0.61800
H2392       H  0.42706818  0.62370828  0.07399720     0.12500
H2393       H  0.30068219  0.62177648  0.10623869     0.12500
C2394       C  0.31298263  0.58701337  0.04445233     0.62000
F2395       F  0.44891734  0.65544417  0.12198242    -0.23200
F2396       F  0.41304102  0.64997059  0.16799665    -0.20500
F2397       F  0.40712658  0.69577576  0.13130184    -0.20200
F2398       F  0.32265062  0.55221807  0.04105576    -0.20200
F2399       F  0.31205266  0.60228136  0.01178770    -0.20500
F2400       F  0.27932190  0.58821270  0.05822355    -0.23200
C2401       C  0.36029999  0.59597475  0.91179132    -0.06100
C2402       C  0.38502005  0.61441289  0.93188969    -0.00100
C2403       C  0.39648163  0.64794256  0.92159391    -0.08700
C2404       C  0.38104054  0.66309378  0.89215758    -0.06100
C2405       C  0.35510470  0.64552415  0.87253069    -0.00100
C2406       C  0.34498564  0.61094813  0.88189401    -0.08600
C2407       C  0.31709947  0.59062038  0.86184568     0.61800
H2408       H  0.35236233  0.57010314  0.92040830     0.12500
H2409       H  0.38891413  0.68923062  0.88442663     0.12500
C2410       C  0.42515658  0.66729645  0.94149036     0.62000
F2411       F  0.30950115  0.55876440  0.87744012    -0.23200
F2412       F  0.32869446  0.58376707  0.82829530    -0.20500
F2413       F  0.28636296  0.60990465  0.86052510    -0.20200
F2414       F  0.45535523  0.64712195  0.94189910    -0.20200
F2415       F  0.41442594  0.67355035  0.97543829    -0.20500
F2416       F  0.43329570  0.69923187  0.92634032    -0.23200
C2417       C  0.18561967  0.76324684  0.10970309    -0.06100
C2418       C  0.20824429  0.73469098  0.11548677    -0.00100
C2419       C  0.20539425  0.70493796  0.09331367    -0.08700
C2420       C  0.17991080  0.70475850  0.06634138    -0.06100
C2421       C  0.15671104  0.73302035  0.06105930    -0.00100
C2422       C  0.16014372  0.76304380  0.08267311    -0.08600
C2423       C  0.13761516  0.79511767  0.07631029     0.61800
H2424       H  0.18837806  0.78604033  0.12634098     0.12500
H2425       H  0.17794768  0.68240217  0.04892564     0.12500
C2426       C  0.22856018  0.67312950  0.09889319     0.62000
F2427       F  0.14594935  0.82228095  0.09890694    -0.23200
F2428       F  0.10259061  0.78653772  0.08109661    -0.20500
F2429       F  0.14252404  0.80687254  0.04249287    -0.20200
F2430       F  0.22269825  0.66004956  0.13191332    -0.20200
F2431       F  0.26358479  0.68244463  0.09573654    -0.20500
F2432       F  0.22160097  0.64668400  0.07499881    -0.23200
C2433       C  0.14912997  0.75622356  0.90811764    -0.06100
C2434       C  0.15613238  0.73159753  0.93440775    -0.00100
C2435       C  0.18728425  0.71096144  0.93174098    -0.08700
C2436       C  0.21107332  0.71720507  0.90425058    -0.06100
C2437       C  0.20439884  0.74198138  0.87824661    -0.00100
C2438       C  0.17287834  0.76206860  0.88014515    -0.08600
C2439       C  0.16573720  0.79161155  0.85456601     0.61800
H2440       H  0.12574584  0.77219056  0.91067872     0.12500
H2441       H  0.23516457  0.70215353  0.90264810     0.12500
C2442       C  0.19621256  0.68238947  0.95784968     0.62000
F2443       F  0.13547037  0.80990980  0.86303783    -0.23200
F2444       F  0.16154199  0.77858749  0.82114088    -0.20500
F2445       F  0.19363820  0.81495907  0.85511072    -0.20200
F2446       F  0.16619564  0.66435243  0.96773608    -0.20200
F2447       F  0.21194391  0.69720746  0.98690993    -0.20500
F2448       F  0.21936959  0.65818325  0.94374658    -0.23200
loop_ 
_geom_bond_atom_site_label_1 
_geom_bond_atom_site_label_2 
_geom_bond_distance 
_geom_bond_site_symmetry_2 
_ccdc_geom_bond_type 
C1            N2   1.351       .  A
C1            N6   1.372       .  A
C1         C2434   1.499       .  S
N2            C3   1.348   1_556  A
C3            N4   1.371       .  A
C3         C2421   1.499       .  S
N4            C5   1.376   1_554  A
C5            N6   1.376       .  A
C5           C51   1.516       .  S
C7            N8   1.354   1_554  A
C7           N12   1.354       .  A
C7         C2386   1.469       .  S
N8            C9   1.355       .  A
C9           N10   1.355       .  A
C9         C2402   1.462       .  S
N10          C11   1.359       .  A
C11          N12   1.358   1_556  A
C11        C2370   1.482       .  S
C13          N14   1.351       .  A
C13          N18   1.375   1_655  A
C13        C2338   1.502       .  S
N14          C15   1.350   1_554  A
C15          N16   1.368   1_655  A
C15        C2357   1.501       .  S
N16          C17   1.372   1_556  A
C17          N18   1.378       .  A
C17          C63   1.514   1_554  S
C19          N20   1.357   1_556  A
C19          N24   1.358       .  A
C19        C2322   1.479       .  S
N20          C21   1.355       .  A
C21          N22   1.352       .  A
C21        C2306   1.461       .  S
N22          C23   1.356       .  A
C23          N24   1.362   1_554  A
C23        C2290   1.486       .  S
C25          N26   1.357       .  A
C25          N30   1.376       .  A
C25        C2274   1.513       .  S
N26          C27   1.353   1_565  A
C27          N28   1.363       .  A
C27        C2258   1.487       .  S
N28          C29   1.368   1_545  A
C29          N30   1.378       .  A
C29          C77   1.510   1_554  S
C31          N32   1.349   1_545  A
C31          N36   1.360       .  A
C31        C2226   1.484       .  S
N32          C33   1.351       .  A
C33          N34   1.348       .  A
C33        C2245   1.448       .  S
N34          C35   1.351       .  A
C35          N36   1.362   1_565  A
C35        C2213   1.485       .  S
C37          N38   1.370       .  A
C37          N42   1.351   1_545  A
C37        C2178   1.503       .  S
N38          C39   1.375   1_545  A
C39          N40   1.373       .  A
C39          C87   1.511   1_556  S
N40          C41   1.370       .  A
C41          N42   1.352       .  A
C41        C2197   1.507       .  S
C43          N44   1.352       .  A
C43          N48   1.352       .  A
C43        C2162   1.460       .  S
N44          C45   1.358       .  A
C45          N46   1.361   1_565  A
C45        C2130   1.484       .  S
N46          C47   1.356       .  A
C47          N48   1.354   1_545  A
C47        C2149   1.477       .  S
C49          N50   1.371   1_655  A
C49          N54   1.356   1_554  A
C49        C2101   1.514       .  S
N50          C51   1.374   1_554  A
C51          N52   1.376       .  A
N52          C53   1.372   1_455  A
C53          N54   1.353       .  A
C53        C2114   1.500       .  S
C55          N56   1.357       .  A
C55          N60   1.355       .  A
C55        C2066   1.480       .  S
N56          C57   1.356   1_554  A
C57          N58   1.356       .  A
C57        C2082   1.481       .  S
N58          C59   1.356   1_556  A
C59          N60   1.359       .  A
C59        C2293   1.486       .  S
C61          N62   1.369       .  A
C61          N66   1.351       .  A
C61        C2053   1.502       .  S
N62          C63   1.377       .  A
C63          N64   1.376   1_556  A
N64          C65   1.373       .  A
C65          N66   1.350   1_554  A
C65        C2034   1.507       .  S
C67          N68   1.358       .  A
C67          N72   1.351       .  A
C67        C2018   1.488       .  S
N68          C69   1.361       .  A
C69          N70   1.360   1_556  A
C69        C2373   1.487       .  S
N70          C71   1.355       .  A
C71          N72   1.353   1_554  A
C71        C2002   1.467       .  S
C73          N74   1.356       .  A
C73          N78   1.372       .  A
C73        C1989   1.508       .  S
N74          C75   1.353   1_565  A
C75          N76   1.368       .  A
C75        C1970   1.498       .  S
N76          C77   1.374   1_545  A
C77          N78   1.372       .  A
C79          N80   1.359       .  A
C79          N84   1.355   1_545  A
C79        C1938   1.486       .  S
N80          C81   1.364   1_545  A
C81          N82   1.365       .  A
C81        C2133   1.491       .  S
N82          C83   1.358       .  A
C83          N84   1.354       .  A
C83        C1954   1.496       .  S
C85          N86   1.368       .  A
C85          N90   1.353   1_545  A
C85        C1909   1.492       .  S
N86          C87   1.371   1_545  A
C87          N88   1.375       .  A
N88          C89   1.372       .  A
C89          N90   1.355       .  A
C89        C1922   1.504       .  S
C91          N92   1.352       .  A
C91          N96   1.356       .  A
C91        C1890   1.475       .  S
N92          C93   1.359       .  A
C93          N94   1.358   1_565  A
C93        C2210   1.488       .  S
N94          C95   1.360       .  A
C95          N96   1.354   1_545  A
C95        C1874   1.486       .  S
C97          N98   1.370       .  A
C97         N102   1.354       .  A
C97        C1861   1.503   1_455  S
N98          C99   1.374       .  A
C99         N100   1.372       .  A
C99         C111   1.510   1_545  S
N100        C101   1.370       .  A
C101        N102   1.355       .  A
C101       C1842   1.497       .  S
C103        N104   1.353       .  A
C103        N108   1.358       .  A
C103       C1826   1.477   1_455  S
N104        C105   1.356       .  A
C105        N106   1.357       .  A
C105       C1797   1.480       .  S
N106        C107   1.356       .  A
C107        N108   1.354       .  A
C107       C1810   1.481       .  S
C109        N110   1.374       .  A
C109        N114   1.351       .  A
C109       C1762   1.511       .  S
N110        C111   1.377       .  A
C111        N112   1.371       .  A
N112        C113   1.366       .  A
C113        N114   1.352       .  A
C113       C1778   1.492   1_455  S
C115        N116   1.351       .  A
C115        N120   1.352       .  A
C115       C1749   1.456   1_455  S
N116        C117   1.352       .  A
C117        N118   1.355       .  A
C117       C1730   1.460       .  S
N118        C119   1.361       .  A
C119        N120   1.355       .  A
C119       C1714   1.490       .  S
C121        N122   1.370       .  A
C121        N126   1.352       .  A
C121       C1698   1.512       .  S
N122        C123   1.378       .  A
C123        N124   1.369       .  A
C123        C135   1.504   1_565  S
N124        C125   1.366       .  A
C125        N126   1.353       .  A
C125       C1685   1.505   1_455  S
C127        N128   1.352       .  A
C127        N132   1.356       .  A
C127       C1666   1.460       .  S
N128        C129   1.353       .  A
C129        N130   1.355       .  A
C129       C1650   1.474   1_455  S
N130        C131   1.363       .  A
C131        N132   1.359       .  A
C131       C1717   1.491       .  S
C133        N134   1.377       .  A
C133        N138   1.347       .  A
C133       C1637   1.524   1_455  S
N134        C135   1.381       .  A
C135        N136   1.367       .  A
N136        C137   1.361       .  A
C137        N138   1.348       .  A
C137       C1618   1.483       .  S
C139        N140   1.351       .  A
C139        N144   1.355       .  A
C139       C1586   1.465       .  S
N140        C141   1.357       .  A
C141        N142   1.359       .  A
C141       C1794   1.480       .  S
N142        C143   1.355       .  A
C143        N144   1.356       .  A
C143       C1602   1.466   1_455  S
C145        N146   1.350       .  A
C145        N150   1.375       .  A
C145       C1554   1.505       .  S
N146        C147   1.352       .  A
C147        N148   1.370       .  A
C147       C1573   1.498       .  S
N148        C149   1.374       .  A
C149        N150   1.380       .  A
C149        C293   1.519       .  S
C151        N152   1.355       .  A
C151        N156   1.351       .  A
C151       C1541   1.482       .  S
N152        C153   1.359       .  A
C153        N154   1.362       .  A
C153       C1506   1.487       .  S
N154        C155   1.358       .  A
C155        N156   1.354       .  A
C155       C1522   1.472       .  S
O157       Zr193   2.493       .  S
O157        C168   1.302       .  A
O158       Zr192   2.435       .  S
O158        C169   1.291       .  A
O159       Zr165   2.450       .  S
O159        C170   1.292       .  A
O160       Zr165   2.486       .  S
O160        C171   1.300       .  A
O161       Zr195   2.437       .  S
O161        C171   1.291       .  A
O162       Zr194   2.413       .  S
O162        C170   1.290       .  A
O163       Zr165   2.433       .  S
O163        C169   1.292       .  A
O164       Zr165   2.449       .  S
O164        C168   1.294       .  A
Zr165       O166   2.328       .  S
Zr165       O167   2.340       .  S
Zr165       O175   2.343       .  S
Zr165       O173   2.364       .  S
O166       Zr192   2.353       .  S
O166       Zr195   2.342       .  S
O167       Zr193   2.334       .  S
O167       Zr194   2.346       .  S
C168       C2418   1.501       .  S
C169       C1669   1.467       .  S
C170       C1525   1.490       .  S
C171       C1701   1.515       .  S
H172        O173   0.965       .  S
O173       Zr192   2.354       .  S
O173       Zr194   2.332       .  S
H174        O175   0.967       .  S
O175       Zr193   2.347       .  S
O175       Zr195   2.335       .  S
O176       Zr192   2.490       .  S
O176        C199   1.301       .  A
O177       Zr193   2.465       .  S
O177        C200   1.297       .  A
O178       Zr194   2.499       .  S
O178        C201   1.304       .  A
O179       Zr195   2.426       .  S
O179        C202   1.289       .  A
O180       Zr195   2.488       .  S
O180        C203   1.300       .  A
O181       Zr194   2.464       .  S
O181        C204   1.296       .  A
O182       Zr196   2.475       .  S
O182        C205   1.300       .  A
O183       Zr196   2.429       .  S
O183        C206   1.289       .  A
O184       Zr194   2.414       .  S
O184        C205   1.284       .  A
O185       Zr195   2.424       .  S
O185        C206   1.289       .  A
O186       Zr192   2.432       .  S
O186        C201   1.289       .  A
O187       Zr193   2.421       .  S
O187        C204   1.289       .  A
O188       Zr193   2.439       .  S
O188        C203   1.292       .  A
O189       Zr192   2.420       .  S
O189        C202   1.289       .  A
O190       Zr196   2.442       .  S
O190        C199   1.292       .  A
O191       Zr196   2.402       .  S
O191        C200   1.286       .  A
Zr192       O198   2.326       .  S
Zr192       O210   2.338       .  S
Zr193       O197   2.341       .  S
Zr193       O208   2.370       .  S
Zr194       O198   2.333       .  S
Zr194       O208   2.351       .  S
Zr195       O197   2.328       .  S
Zr195       O210   2.368       .  S
Zr196       O197   2.359       .  S
Zr196       O198   2.324       .  S
Zr196       O210   2.342       .  S
Zr196       O208   2.343       .  S
C199       C1477   1.507       .  S
C200       C1461   1.470       .  S
C201       C1557   1.506       .  S
C202       C1490   1.455       .  S
C203       C1925   1.508       .  S
C204       C2389   1.471       .  S
C205       C1442   1.506       .  S
C206       C1893   1.456       .  S
H207        O208   0.979       .  S
H209        O210   0.965       .  S
C211        N212   1.370       .  A
C211        N216   1.352       .  A
C211       C1426   1.517       .  S
N212        C213   1.375       .  A
C213        N214   1.372       .  A
C213        C603   1.506       .  S
N214        C215   1.368       .  A
C215        N216   1.347       .  A
C215       C1410   1.498       .  S
C217        N218   1.354       .  A
C217        N222   1.357       .  A
C217       C1394   1.471       .  S
N218        C219   1.358       .  A
C219        N220   1.360       .  A
C219       C1362   1.487       .  S
N220        C221   1.356       .  A
C221        N222   1.358       .  A
C221       C1381   1.475       .  S
O223       Zr259   2.481       .  S
O223        C234   1.299       .  A
O224       Zr258   2.445       .  S
O224        C235   1.293       .  A
O225       Zr231   2.461       .  S
O225        C236   1.295       .  A
O226       Zr231   2.484       .  S
O226        C237   1.300       .  A
O227       Zr261   2.443       .  S
O227        C237   1.293       .  A
O228       Zr260   2.399       .  S
O228        C236   1.286       .  A
O229       Zr231   2.434       .  S
O229        C235   1.292       .  A
O230       Zr231   2.433       .  S
O230        C234   1.291       .  A
Zr231       O232   2.335       .  S
Zr231       O233   2.344       .  S
Zr231       O241   2.343       .  S
Zr231       O239   2.356       .  S
O232       Zr258   2.349       .  S
O232       Zr261   2.340       .  S
O233       Zr259   2.334       .  S
O233       Zr260   2.348       .  S
C234       C2181   1.507       .  S
C235       C2021   1.475       .  S
C236       C1314   1.480       .  S
C237       C2050   1.507       .  S
H238        O239   0.965       .  S
O239       Zr258   2.349       .  S
O239       Zr260   2.336       .  S
H240        O241   0.966       .  S
O241       Zr259   2.336       .  S
O241       Zr261   2.342       .  S
O242       Zr258   2.489       .  S
O242        C265   1.302       .  A
O243       Zr259   2.450       .  S
O243        C266   1.293       .  A
O244       Zr260   2.465       .  S
O244        C267   1.295       .  A
O245       Zr261   2.454       .  S
O245        C268   1.294       .  A
O246       Zr261   2.482       .  S
O246        C269   1.300       .  A
O247       Zr260   2.446       .  S
O247        C270   1.293       .  A
O248       Zr262   2.476       .  S
O248        C271   1.300       .  A
O249       Zr262   2.422       .  S
O249        C272   1.288       .  A
O250       Zr260   2.418       .  S
O250        C271   1.286       .  A
O251       Zr261   2.446       .  S
O251        C272   1.295       .  A
O252       Zr258   2.420       .  S
O252        C267   1.289       .  A
O253       Zr259   2.420       .  S
O253        C270   1.288       .  A
O254       Zr259   2.438       .  S
O254        C269   1.292       .  A
O255       Zr258   2.402       .  S
O255        C268   1.287       .  A
O256       Zr262   2.444       .  S
O256        C265   1.291       .  A
O257       Zr262   2.434       .  S
O257        C266   1.291       .  A
Zr258       O264   2.332       .  S
Zr258       O276   2.336       .  S
Zr259       O263   2.340       .  S
Zr259       O274   2.360       .  S
Zr260       O264   2.333       .  S
Zr260       O274   2.342       .  S
Zr261       O263   2.336       .  S
Zr261       O276   2.363       .  S
Zr262       O263   2.357       .  S
Zr262       O264   2.330       .  S
Zr262       O276   2.353       .  S
Zr262       O274   2.332       .  S
C265       C1330   1.507       .  S
C266       C1378   1.472       .  S
C267       C1298   1.498       .  S
C268       C1349   1.481       .  S
C269       C1845   1.498       .  S
C270       C2146   1.464       .  S
C271       C1413   1.491       .  S
C272       C1813   1.467       .  S
H273        O274   0.966       .  S
H275        O276   0.966       .  S
C277        N278   1.355       .  A
C277        N282   1.372       .  A
C277       C1474   1.503       .  S
N278        C279   1.354       .  A
C279        N280   1.366       .  A
C279       C1285   1.487       .  S
N280        C281   1.371       .  A
C281        N282   1.375       .  A
C281        C435   1.509       .  S
C283        N284   1.352       .  A
C283        N288   1.361       .  A
C283       C1266   1.488       .  S
N284        C285   1.354       .  A
C285        N286   1.351       .  A
C285       C1493   1.475       .  S
N286        C287   1.357       .  A
C287        N288   1.361       .  A
C287       C1365   1.485       .  S
C289        N290   1.352       .  A
C289        N294   1.370       .  A
C289       C1250   1.511       .  S
N290        C291   1.347       .  A
C291        N292   1.375       .  A
C291       C1333   1.509       .  S
N292        C293   1.380       .  A
C293        N294   1.374       .  A
C295        N296   1.350       .  A
C295        N300   1.350       .  A
C295       C1346   1.460       .  S
N296        C297   1.352       .  A
C297        N298   1.360       .  A
C297       C1234   1.478       .  S
N298        C299   1.361       .  A
C299        N300   1.355       .  A
C299       C1218   1.485       .  S
O301       Zr337   2.488       .  S
O301        C312   1.302       .  A
O302       Zr336   2.451       .  S
O302        C313   1.294       .  A
O303       Zr309   2.482       .  S
O303        C314   1.300       .  A
O304       Zr309   2.447       .  S
O304        C315   1.293       .  A
O305       Zr339   2.418       .  S
O305        C315   1.289       .  A
O306       Zr338   2.437       .  S
O306        C314   1.289       .  A
O307       Zr309   2.409       .  S
O307        C313   1.287       .  A
O308       Zr309   2.422       .  S
O308        C312   1.287       .  A
Zr309       O310   2.356       .  S
Zr309       O311   2.331       .  S
Zr309       O319   2.345       .  S
Zr309       O317   2.335       .  S
O310       Zr336   2.349       .  S
O310       Zr339   2.333       .  S
O311       Zr337   2.336       .  S
O311       Zr338   2.326       .  S
C312       C2437   1.494       .  S
C313       C1733   1.464       .  S
C314       C1765   1.507       .  S
C315       C1237   1.471       .  S
H316        O317   0.966       .  S
O317       Zr336   2.366       .  S
O317       Zr338   2.342       .  S
H318        O319   0.965       .  S
O319       Zr337   2.336       .  S
O319       Zr339   2.355       .  S
O320       Zr336   2.498       .  S
O320        C343   1.302       .  A
O321       Zr337   2.453       .  S
O321        C344   1.295       .  A
O322       Zr338   2.431       .  S
O322        C345   1.290       .  A
O323       Zr339   2.478       .  S
O323        C346   1.297       .  A
O324       Zr339   2.445       .  S
O324        C347   1.292       .  A
O325       Zr338   2.478       .  S
O325        C348   1.298       .  A
O326       Zr340   2.446       .  S
O326        C349   1.292       .  A
O327       Zr340   2.486       .  S
O327        C350   1.300       .  A
O328       Zr338   2.403       .  S
O328        C349   1.287       .  A
O329       Zr339   2.427       .  S
O329        C350   1.289       .  A
O330       Zr336   2.432       .  S
O330        C345   1.292       .  A
O331       Zr337   2.432       .  S
O331        C348   1.291       .  A
O332       Zr337   2.420       .  S
O332        C347   1.291       .  A
O333       Zr336   2.443       .  S
O333        C346   1.293       .  A
O334       Zr340   2.436       .  S
O334        C343   1.290       .  A
O335       Zr340   2.412       .  S
O335        C344   1.287       .  A
Zr336       O342   2.333       .  S
Zr336       O354   2.340       .  S
Zr337       O341   2.356       .  S
Zr337       O352   2.346       .  S
Zr338       O342   2.358       .  S
Zr338       O352   2.333       .  S
Zr339       O341   2.341       .  S
Zr339       O354   2.336       .  S
Zr340       O341   2.333       .  S
Zr340       O342   2.340       .  S
Zr340       O354   2.333       .  S
Zr340       O352   2.364       .  S
C343       C1282   1.497       .  S
C344       C1202   1.461       .  S
C345       C1269   1.468       .  S
C346       C1253   1.520       .  S
C347       C2405   1.479       .  S
C348       C2194   1.503       .  S
C349       C2165   1.471       .  S
C350       C1186   1.496       .  S
H351        O352   0.965       .  S
H353        O354   0.966       .  S
C355        N356   1.350       .  A
C355        N360   1.373       .  A
C355       C1170   1.511       .  S
N356        C357   1.351       .  A
C357        N358   1.371       .  A
C357       C1154   1.504       .  S
N358        C359   1.376       .  A
C359        N360   1.378       .  A
C359        C461   1.517       .  S
C361        N362   1.360       .  A
C361        N366   1.353       .  A
C361       C1122   1.489       .  S
N362        C363   1.362       .  A
C363        N364   1.362       .  A
C363       C1509   1.490   1_655  S
N364        C365   1.357       .  A
C365        N366   1.359       .  A
C365       C1138   1.501       .  S
C367        N368   1.349       .  A
C367        N372   1.370       .  A
C367       C1106   1.492       .  S
N368        C369   1.349       .  A
C369        N370   1.366       .  A
C369       C1445   1.490       .  S
N370        C371   1.369       .  A
C371        N372   1.371       .  A
C371        C525   1.500       .  S
C373        N374   1.359       .  A
C373        N378   1.358       .  A
C373       C1090   1.471       .  S
N374        C375   1.361       .  A
C375        N376   1.356       .  A
C375       C1074   1.484       .  S
N376        C377   1.349       .  A
C377        N378   1.356       .  A
C377       C1458   1.482       .  S
O379       Zr415   2.480       .  S
O379        C390   1.299       .  A
O380       Zr414   2.447       .  S
O380        C391   1.293       .  A
O381       Zr387   2.463       .  S
O381        C392   1.295       .  A
O382       Zr387   2.437       .  S
O382        C393   1.291       .  A
O383       Zr417   2.435       .  S
O383        C393   1.291       .  A
O384       Zr416   2.456       .  S
O384        C392   1.296       .  A
O385       Zr387   2.423       .  S
O385        C391   1.289       .  A
O386       Zr387   2.445       .  S
O386        C390   1.293       .  A
Zr387       O388   2.351       .  S
Zr387       O389   2.329       .  S
Zr387       O397   2.342       .  S
Zr387       O395   2.347       .  S
O388       Zr414   2.348       .  S
O388       Zr417   2.326       .  S
O389       Zr415   2.332       .  S
O389       Zr416   2.327       .  S
C390       C2277   1.514       .  S
C391       C2069   1.465       .  S
C392       C2098   1.517       .  S
C393       C1093   1.465       .  S
H394        O395   0.968       .  S
O395       Zr414   2.367       .  S
O395       Zr416   2.344       .  S
H396        O397   0.965       .  S
O397       Zr415   2.340       .  S
O397       Zr417   2.357       .  S
O398       Zr414   2.499       .  S
O398        C421   1.305       .  A
O399       Zr415   2.454       .  S
O399        C422   1.294       .  A
O400       Zr416   2.443       .  S
O400        C423   1.292       .  A
O401       Zr417   2.466       .  S
O401        C424   1.298       .  A
O402       Zr417   2.421       .  S
O402        C425   1.288       .  A
O403       Zr416   2.466       .  S
O403        C426   1.295       .  A
O404       Zr418   2.446       .  S
O404        C427   1.293       .  A
O405       Zr418   2.496       .  S
O405        C428   1.303       .  A
O406       Zr416   2.422       .  S
O406        C427   1.289       .  A
O407       Zr417   2.436       .  S
O407        C428   1.289       .  A
O408       Zr414   2.435       .  S
O408        C423   1.292       .  A
O409       Zr415   2.434       .  S
O409        C426   1.291       .  A
O410       Zr415   2.413       .  S
O410        C425   1.288       .  A
O411       Zr414   2.426       .  S
O411        C424   1.288       .  A
O412       Zr418   2.419       .  S
O412        C421   1.287       .  A
O413       Zr418   2.419       .  S
O413        C422   1.289       .  A
Zr414       O420   2.329       .  S
Zr414       O432   2.337       .  S
Zr415       O419   2.354       .  S
Zr415       O430   2.341       .  S
Zr416       O420   2.354       .  S
Zr416       O430   2.341       .  S
Zr417       O419   2.348       .  S
Zr417       O432   2.336       .  S
Zr418       O419   2.327       .  S
Zr418       O420   2.347       .  S
Zr418       O432   2.338       .  S
Zr418       O430   2.361       .  S
C421       C1157   1.502       .  S
C422       C1061   1.473       .  S
C423       C1125   1.477       .  S
C424       C1109   1.493       .  S
C425       C2242   1.449       .  S
C426       C1682   1.511       .  S
C427       C1653   1.464       .  S
C428       C1042   1.506       .  S
H429        O430   0.966       .  S
H431        O432   0.966       .  S
C433        N434   1.369       .  A
C433        N438   1.353       .  A
C433       C1026   1.498       .  S
N434        C435   1.373       .  A
C435        N436   1.372       .  A
N436        C437   1.370       .  A
C437        N438   1.355       .  A
C437       C1045   1.498       .  S
C439        N440   1.353       .  A
C439        N444   1.358       .  A
C439       C1010   1.478       .  S
N440        C441   1.360       .  A
C441        N442   1.357       .  A
C441        C994   1.489       .  S
N442        C443   1.357       .  A
C443        N444   1.355       .  A
C443       C1058   1.486       .  S
C445        N446   1.354       .  A
C445        N450   1.365       .  A
C445        C978   1.510       .  S
N446        C447   1.350       .  A
C447        N448   1.366       .  A
C447       C1189   1.487       .  S
N448        C449   1.371       .  A
C449        N450   1.367       .  A
C449        C591   1.496       .  S
C451        N452   1.351       .  A
C451        N456   1.356       .  A
C451       C1205   1.467       .  S
N452        C453   1.352       .  A
C453        N454   1.361       .  A
C453       C1077   1.486       .  S
N454        C455   1.358       .  A
C455        N456   1.356       .  A
C455        C962   1.470       .  S
C457        N458   1.357       .  A
C457        N462   1.370       .  A
C457        C930   1.503       .  S
N458        C459   1.356       .  A
C459        N460   1.373       .  A
C459        C946   1.509       .  S
N460        C461   1.377       .  A
C461        N462   1.373       .  A
C463        N464   1.356       .  A
C463        N468   1.357       .  A
C463        C914   1.468       .  S
N464        C465   1.354       .  A
C465        N466   1.350       .  A
C465        C898   1.470       .  S
N466        C467   1.356       .  A
C467        N468   1.360       .  A
C467       C1221   1.482   1_655  S
O469       Zr505   2.494       .  S
O469        C480   1.302       .  A
O470       Zr504   2.444       .  S
O470        C481   1.292       .  A
O471       Zr477   2.454       .  S
O471        C482   1.295       .  A
O472       Zr477   2.484       .  S
O472        C483   1.300       .  A
O473       Zr507   2.425       .  S
O473        C483   1.289       .  A
O474       Zr506   2.422       .  S
O474        C482   1.288       .  A
O475       Zr477   2.416       .  S
O475        C481   1.289       .  A
O476       Zr477   2.442       .  S
O476        C480   1.291       .  A
Zr477       O478   2.338       .  S
Zr477       O479   2.342       .  S
Zr477       O487   2.331       .  S
Zr477       O485   2.365       .  S
O478       Zr504   2.358       .  S
O478       Zr507   2.340       .  S
O479       Zr505   2.340       .  S
O479       Zr506   2.364       .  S
C480       C2117   1.505       .  S
C481       C1746   1.463       .  S
C482        C917   1.486       .  S
C483       C1781   1.496       .  S
H484        O485   0.966       .  S
O485       Zr504   2.347       .  S
O485       Zr506   2.332       .  S
H486        O487   0.966       .  S
O487       Zr505   2.335       .  S
O487       Zr507   2.341       .  S
O488       Zr504   2.483       .  S
O488        C511   1.300       .  A
O489       Zr505   2.452       .  S
O489        C512   1.294       .  A
O490       Zr506   2.501       .  S
O490        C513   1.304       .  A
O491       Zr507   2.439       .  S
O491        C514   1.292       .  A
O492       Zr507   2.473       .  S
O492        C515   1.300       .  A
O493       Zr506   2.441       .  S
O493        C516   1.292       .  A
O494       Zr508   2.455       .  S
O494        C517   1.293       .  A
O495       Zr508   2.442       .  S
O495        C518   1.293       .  A
O496       Zr506   2.438       .  S
O496        C517   1.293       .  A
O497       Zr507   2.427       .  S
O497        C518   1.288       .  A
O498       Zr504   2.446       .  S
O498        C513   1.292       .  A
O499       Zr505   2.425       .  S
O499        C516   1.291       .  A
O500       Zr505   2.435       .  S
O500        C515   1.289       .  A
O501       Zr504   2.418       .  S
O501        C514   1.289       .  A
O502       Zr508   2.441       .  S
O502        C511   1.291       .  A
O503       Zr508   2.416       .  S
O503        C512   1.289       .  A
Zr504       O510   2.334       .  S
Zr504       O522   2.349       .  S
Zr505       O509   2.341       .  S
Zr505       O520   2.361       .  S
Zr506       O510   2.333       .  S
Zr506       O520   2.352       .  S
Zr507       O509   2.321       .  S
Zr507       O522   2.360       .  S
Zr508       O509   2.341       .  S
Zr508       O510   2.338       .  S
Zr508       O522   2.344       .  S
Zr508       O520   2.337       .  S
C511       C1029   1.504       .  S
C512        C965   1.475       .  S
C513        C949   1.512       .  S
C514       C1013   1.461       .  S
C515       C1986   1.507       .  S
C516       C2085   1.467       .  S
C517        C981   1.507       .  S
C518       C1957   1.488       .  S
H519        O520   0.961       .  S
H521        O522   0.967       .  S
C523        N524   1.366       .  A
C523        N528   1.353       .  A
C523        C866   1.503       .  S
N524        C525   1.372       .  A
C525        N526   1.373       .  A
N526        C527   1.368       .  A
C527        N528   1.350       .  A
C527        C885   1.492       .  S
C529        N530   1.355       .  A
C529        N534   1.353       .  A
C529        C853   1.467       .  S
N530        C531   1.360       .  A
C531        N532   1.364       .  A
C531        C818   1.489       .  S
N532        C533   1.357       .  A
C533        N534   1.354       .  A
C533        C837   1.475       .  S
O535       Zr571   2.509       .  S
O535        C546   1.305       .  A
O536       Zr570   2.471       .  S
O536        C547   1.299       .  A
O537       Zr543   2.458       .  S
O537        C548   1.296       .  A
O538       Zr543   2.495       .  S
O538        C549   1.304       .  A
O539       Zr573   2.439       .  S
O539        C549   1.288       .  A
O540       Zr572   2.400       .  S
O540        C548   1.284       .  A
O541       Zr543   2.400       .  S
O541        C547   1.284       .  A
O542       Zr543   2.414       .  S
O542        C546   1.285       .  A
Zr543       O544   2.331       .  S
Zr543       O545   2.338       .  S
Zr543       O553   2.331       .  S
Zr543       O551   2.364       .  S
O544       Zr570   2.355       .  S
O544       Zr573   2.341       .  S
O545       Zr571   2.334       .  S
O545       Zr572   2.358       .  S
C546       C2341   1.503       .  S
C547       C1605   1.479       .  S
C548       C1141   1.471       .  S
C549       C1634   1.528       .  S
H550        O551   0.966       .  S
O551       Zr570   2.343       .  S
O551       Zr572   2.338       .  S
H552        O553   0.966       .  S
O553       Zr571   2.337       .  S
O553       Zr573   2.339       .  S
O554       Zr570   2.488       .  S
O554        C577   1.302       .  A
O555       Zr571   2.463       .  S
O555        C578   1.296       .  A
O556       Zr572   2.499       .  S
O556        C579   1.304       .  A
O557       Zr573   2.454       .  S
O557        C580   1.294       .  A
O558       Zr573   2.488       .  S
O558        C581   1.301       .  A
O559       Zr572   2.442       .  S
O559        C582   1.292       .  A
O560       Zr574   2.485       .  S
O560        C583   1.300       .  A
O561       Zr574   2.442       .  S
O561        C584   1.292       .  A
O562       Zr572   2.420       .  S
O562        C583   1.287       .  A
O563       Zr573   2.419       .  S
O563        C584   1.290       .  A
O564       Zr570   2.432       .  S
O564        C579   1.288       .  A
O565       Zr571   2.417       .  S
O565        C582   1.290       .  A
O566       Zr571   2.428       .  S
O566        C581   1.289       .  A
O567       Zr570   2.411       .  S
O567        C580   1.288       .  A
O568       Zr574   2.444       .  S
O568        C577   1.291       .  A
O569       Zr574   2.430       .  S
O569        C578   1.291       .  A
Zr570       O576   2.335       .  S
Zr570       O588   2.342       .  S
Zr571       O575   2.342       .  S
Zr571       O586   2.371       .  S
Zr572       O576   2.326       .  S
Zr572       O586   2.355       .  S
Zr573       O575   2.333       .  S
Zr573       O588   2.365       .  S
Zr574       O575   2.354       .  S
Zr574       O576   2.333       .  S
Zr574       O588   2.354       .  S
Zr574       O586   2.342       .  S
C577        C786   1.502       .  S
C578        C850   1.480       .  S
C579       C1173   1.518       .  S
C580        C802   1.464       .  S
C581       C2261   1.489       .  S
C582       C2309   1.466       .  S
C583        C882   1.488       .  S
C584       C2229   1.469       .  S
H585        O586   0.966       .  S
H587        O588   0.963       .  S
C589        N590   1.364       .  A
C589        N594   1.352       .  A
C589       C1301   1.501       .  S
N590        C591   1.368       .  A
C591        N592   1.373       .  A
N592        C593   1.368       .  A
C593        N594   1.348       .  A
C593        C770   1.495       .  S
C595        N596   1.353       .  A
C595        N600   1.350       .  A
C595       C1317   1.466       .  S
N596        C597   1.355       .  A
C597        N598   1.358       .  A
C597        C754   1.466       .  S
N598        C599   1.364       .  A
C599        N600   1.354       .  A
C599        C821   1.491       .  S
C601        N602   1.370       .  A
C601        N606   1.353       .  A
C601        C738   1.501       .  S
N602        C603   1.374       .  A
C603        N604   1.372       .  A
N604        C605   1.368       .  A
C605        N606   1.354       .  A
C605        C789   1.497       .  S
C607        N608   1.354       .  A
C607        N612   1.354       .  A
C607        C805   1.468       .  S
N608        C609   1.353       .  A
C609        N610   1.352       .  A
C609        C722   1.459       .  S
N610        C611   1.354       .  A
C611        N612   1.360       .  A
C611        C997   1.486       .  S
O613       Zr649   2.477       .  S
O613        C624   1.301       .  A
O614       Zr648   2.444       .  S
O614        C625   1.293       .  A
O615       Zr621   2.487       .  S
O615        C626   1.301       .  A
O616       Zr621   2.437       .  S
O616        C627   1.291       .  A
O617       Zr651   2.424       .  S
O617        C627   1.290       .  A
O618       Zr650   2.431       .  S
O618        C626   1.289       .  A
O619       Zr621   2.409       .  S
O619        C625   1.287       .  A
O620       Zr621   2.426       .  S
O620        C624   1.287       .  A
Zr621       O622   2.358       .  S
Zr621       O623   2.327       .  S
Zr621       O631   2.348       .  S
Zr621       O629   2.332       .  S
O622       Zr648   2.344       .  S
O622       Zr651   2.335       .  S
O623       Zr649   2.336       .  S
O623       Zr650   2.332       .  S
C624       C2354   1.510       .  S
C625       C1829   1.458       .  S
C626       C1858   1.501       .  S
C627        C901   1.459       .  S
H628        O629   0.965       .  S
O629       Zr648   2.362       .  S
O629       Zr650   2.342       .  S
H630        O631   0.966       .  S
O631       Zr649   2.334       .  S
O631       Zr651   2.360       .  S
O632       Zr648   2.486       .  S
O632        C655   1.301       .  A
O633       Zr649   2.450       .  S
O633        C656   1.294       .  A
O634       Zr650   2.458       .  S
O634        C657   1.295       .  A
O635       Zr651   2.497       .  S
O635        C658   1.303       .  A
O636       Zr651   2.463       .  S
O636        C659   1.296       .  A
O637       Zr650   2.499       .  S
O637        C660   1.303       .  A
O638       Zr652   2.470       .  S
O638        C661   1.299       .  A
O639       Zr652   2.500       .  S
O639        C662   1.305       .  A
O640       Zr650   2.402       .  S
O640        C661   1.282       .  A
O641       Zr651   2.422       .  S
O641        C662   1.287       .  A
O642       Zr648   2.406       .  S
O642        C657   1.288       .  A
O643       Zr649   2.438       .  S
O643        C660   1.291       .  A
O644       Zr649   2.420       .  S
O644        C659   1.288       .  A
O645       Zr648   2.437       .  S
O645        C658   1.291       .  A
O646       Zr652   2.446       .  S
O646        C655   1.292       .  A
O647       Zr652   2.413       .  S
O647        C656   1.288       .  A
Zr648       O654   2.341       .  S
Zr648       O666   2.323       .  S
Zr649       O653   2.361       .  S
Zr649       O664   2.341       .  S
Zr650       O654   2.366       .  S
Zr650       O664   2.335       .  S
Zr651       O653   2.350       .  S
Zr651       O666   2.340       .  S
Zr652       O653   2.348       .  S
Zr652       O654   2.348       .  S
Zr652       O666   2.334       .  S
Zr652       O664   2.363       .  S
C655        C741   1.507       .  S
C656        C757   1.464       .  S
C657        C725   1.473       .  S
C658        C933   1.505       .  S
C659       C2325   1.472       .  S
C660       C1973   1.503       .  S
C661       C1941   1.496       .  S
C662        C773   1.505       .  S
H663        O664   0.965       .  S
H665        O666   0.965       .  S
O667       Zr703   2.500       .  S
O667        C678   1.304       .  A
O668       Zr702   2.447       .  S
O668        C679   1.294       .  A
O669       Zr675   2.475       .  S
O669        C680   1.298       .  A
O670       Zr675   2.451       .  S
O670        C681   1.294       .  A
O671       Zr705   2.432       .  S
O671        C681   1.292       .  A
O672       Zr704   2.417       .  S
O672        C680   1.287       .  A
O673       Zr675   2.415       .  S
O673        C679   1.286       .  A
O674       Zr675   2.423       .  S
O674        C678   1.287       .  A
Zr675       O676   2.351       .  S
Zr675       O677   2.335       .  S
Zr675       O685   2.346       .  S
Zr675       O683   2.335       .  S
O676       Zr702   2.343       .  S
O676       Zr705   2.333       .  S
O677       Zr703   2.337       .  S
O677       Zr704   2.341       .  S
C678       C2037   1.505       .  S
C679       C1589   1.484       .  S
C680       C1621   1.482       .  S
C681       C1538   1.476       .  S
H682        O683   0.965       .  S
O683       Zr702   2.351       .  S
O683       Zr704   2.345       .  S
H684        O685   0.967       .  S
O685       Zr703   2.336       .  S
O685       Zr705   2.364       .  S
O686       Zr702   2.470       .  S
O686        C709   1.296       .  A
O687       Zr703   2.461       .  S
O687        C710   1.295       .  A
O688       Zr704   2.459       .  S
O688        C711   1.295       .  A
O689       Zr705   2.496       .  S
O689        C712   1.303       .  A
O690       Zr705   2.441       .  S
O690        C713   1.292       .  A
O691       Zr704   2.481       .  S
O691        C714   1.300       .  A
O692       Zr706   2.442       .  S
O692        C715   1.292       .  A
O693       Zr706   2.473       .  S
O693        C716   1.298       .  A
O694       Zr704   2.423       .  S
O694        C715   1.290       .  A
O695       Zr705   2.441       .  S
O695        C716   1.293       .  A
O696       Zr702   2.428       .  S
O696        C711   1.291       .  A
O697       Zr703   2.432       .  S
O697        C714   1.290       .  A
O698       Zr703   2.429       .  S
O698        C713   1.291       .  A
O699       Zr702   2.428       .  S
O699        C712   1.290       .  A
O700       Zr706   2.447       .  S
O700        C709   1.294       .  A
O701       Zr706   2.416       .  S
O701        C710   1.290       .  A
Zr702       O708   2.339       .  S
Zr702       O720   2.337       .  S
Zr703       O707   2.360       .  S
Zr703       O718   2.347       .  S
Zr704       O708   2.356       .  S
Zr704       O718   2.326       .  S
Zr705       O707   2.347       .  S
Zr705       O720   2.337       .  S
Zr706       O707   2.336       .  S
Zr706       O708   2.347       .  S
Zr706       O720   2.336       .  S
Zr706       O718   2.356       .  S
C709       C1429   1.520       .  S
C710        C834   1.481       .  S
C711       C1397   1.482       .  S
C712       C1570   1.497       .  S
C713       C2005   1.464       .  S
C714       C1906   1.490       .  S
C715       C1877   1.471       .  S
C716        C869   1.500       .  S
H717        O718   0.964       .  S
H719        O720   0.966       .  S
C721        C722   1.403       .  A
C721        C726   1.408       .  A
C721        H728   1.083       .  S
C722        C723   1.407       .  A
C723        C724   1.395       .  A
C723        C730   1.520       .  S
C724        C725   1.406       .  A
C724        H729   1.084       .  S
C725        C726   1.415       .  A
C726        C727   1.515       .  S
C727        F731   1.385       .  S
C727        F732   1.384       .  S
C727        F733   1.380       .  S
C730        F734   1.383       .  S
C730        F735   1.383       .  S
C730        F736   1.384       .  S
C737        C738   1.404       .  A
C737        C742   1.419       .  A
C737        H744   1.083       .  S
C738        C739   1.423       .  A
C739        C740   1.415       .  A
C739        C746   1.519       .  S
C740        C741   1.405       .  A
C740        H745   1.083       .  S
C741        C742   1.426       .  A
C742        C743   1.519       .  S
C743        F747   1.385       .  S
C743        F748   1.381       .  S
C743        F749   1.384       .  S
C746        F750   1.384       .  S
C746        F751   1.382       .  S
C746        F752   1.385       .  S
C753        C754   1.404       .  A
C753        C758   1.407       .  A
C753        H760   1.083       .  S
C754        C755   1.411       .  A
C755        C756   1.399       .  A
C755        C762   1.517       .  S
C756        C757   1.400       .  A
C756        H761   1.083       .  S
C757        C758   1.408       .  A
C758        C759   1.511       .  S
C759        F763   1.384       .  S
C759        F764   1.382       .  S
C759        F765   1.383       .  S
C762        F766   1.381       .  S
C762        F767   1.382       .  S
C762        F768   1.386       .  S
C769        C770   1.400       .  A
C769        C774   1.414       .  A
C769        H776   1.083       .  S
C770        C771   1.425       .  A
C771        C772   1.411       .  A
C771        C778   1.521       .  S
C772        C773   1.404       .  A
C772        H777   1.083       .  S
C773        C774   1.431       .  A
C774        C775   1.519       .  S
C775        F779   1.385       .  S
C775        F780   1.378       .  S
C775        F781   1.382       .  S
C778        F782   1.384       .  S
C778        F783   1.382       .  S
C778        F784   1.385       .  S
C785        C786   1.401       .  A
C785        C790   1.411       .  A
C785        H792   1.075       .  S
C786        C787   1.424       .  A
C787        C788   1.418       .  A
C787        C794   1.518       .  S
C788        C789   1.405       .  A
C788        H793   1.083       .  S
C789        C790   1.423       .  A
C790        C791   1.522       .  S
C791        F795   1.385       .  S
C791        F796   1.384       .  S
C791        F797   1.381       .  S
C794        F798   1.382       .  S
C794        F799   1.383       .  S
C794        F800   1.385       .  S
C801        C802   1.401       .  A
C801        C806   1.405       .  A
C801        H808   1.084       .  S
C802        C803   1.411       .  A
C803        C804   1.402       .  A
C803        C810   1.512       .  S
C804        C805   1.402       .  A
C804        H809   1.084       .  S
C805        C806   1.415       .  A
C806        C807   1.518       .  S
C807        F811   1.385       .  S
C807        F812   1.382       .  S
C807        F813   1.384       .  S
C810        F814   1.383       .  S
C810        F815   1.378       .  S
C810        F816   1.384       .  S
C817        C818   1.403       .  A
C817        C822   1.404   1_554  A
C817        H824   1.083       .  S
C818        C819   1.414       .  A
C819        C820   1.401   1_554  A
C819        C826   1.514       .  S
C820        C821   1.407       .  A
C820        H825   1.084       .  S
C821        C822   1.429       .  A
C822        C823   1.521       .  S
C823        F827   1.385       .  S
C823        F828   1.384       .  S
C823        F829   1.383       .  S
C826        F830   1.384       .  S
C826        F831   1.383       .  S
C826        F832   1.385       .  S
C833        C834   1.407       .  A
C833        C838   1.399       .  A
C833        H840   1.083       .  S
C834        C835   1.415       .  A
C835        C836   1.412       .  A
C835        C842   1.517       .  S
C836        C837   1.408       .  A
C836        H841   1.083       .  S
C837        C838   1.412       .  A
C838        C839   1.519       .  S
C839        F843   1.385       .  S
C839        F844   1.382       .  S
C839        F845   1.383       .  S
C842        F846   1.384       .  S
C842        F847   1.384       .  S
C842        F848   1.383       .  S
C849        C850   1.408       .  A
C849        C854   1.407       .  A
C849        H856   1.084       .  S
C850        C851   1.416       .  A
C851        C852   1.407       .  A
C851        C858   1.513       .  S
C852        C853   1.400       .  A
C852        H857   1.084       .  S
C853        C854   1.409       .  A
C854        C855   1.518       .  S
C855        F859   1.384       .  S
C855        F860   1.383       .  S
C855        F861   1.382       .  S
C858        F862   1.382       .  S
C858        F863   1.381       .  S
C858        F864   1.385       .  S
C865        C866   1.411       .  A
C865        C870   1.409       .  A
C865        H872   1.083       .  S
C866        C867   1.419       .  A
C867        C868   1.416       .  A
C867        C874   1.518       .  S
C868        C869   1.411       .  A
C868        H873   1.083       .  S
C869        C870   1.420       .  A
C870        C871   1.520       .  S
C871        F875   1.386       .  S
C871        F876   1.382       .  S
C871        F877   1.382       .  S
C874        F878   1.382       .  S
C874        F879   1.383       .  S
C874        F880   1.385       .  S
C881        C882   1.407       .  A
C881        C886   1.415       .  A
C881        H888   1.083       .  S
C882        C883   1.414       .  A
C883        C884   1.410       .  A
C883        C890   1.516       .  S
C884        C885   1.408       .  A
C884        H889   1.083       .  S
C885        C886   1.417       .  A
C886        C887   1.515       .  S
C887        F891   1.384       .  S
C887        F892   1.383       .  S
C887        F893   1.383       .  S
C890        F894   1.382       .  S
C890        F895   1.383       .  S
C890        F896   1.385       .  S
C897        C898   1.404       .  A
C897        C902   1.402       .  A
C897        H904   1.083       .  S
C898        C899   1.420       .  A
C899        C900   1.403       .  A
C899        C906   1.521       .  S
C900        C901   1.399       .  A
C900        H905   1.084       .  S
C901        C902   1.408       .  A
C902        C903   1.515       .  S
C903        F907   1.384       .  S
C903        F908   1.383       .  S
C903        F909   1.383       .  S
C906        F910   1.384       .  S
C906        F911   1.382       .  S
C906        F912   1.384       .  S
C913        C914   1.394       .  A
C913        C918   1.397       .  A
C913        H920   1.084       .  S
C914        C915   1.413       .  A
C915        C916   1.412       .  A
C915        C922   1.517       .  S
C916        C917   1.409       .  A
C916        H921   1.083       .  S
C917        C918   1.425       .  A
C918        C919   1.520       .  S
C919        F923   1.385       .  S
C919        F924   1.383       .  S
C919        F925   1.380       .  S
C922        F926   1.383       .  S
C922        F927   1.381   1_655  S
C922        F928   1.384   1_655  S
C929        C930   1.408       .  A
C929        C934   1.415       .  A
C929        H936   1.081       .  S
C930        C931   1.418       .  A
C931        C932   1.419       .  A
C931        C938   1.517       .  S
C932        C933   1.411       .  A
C932        H937   1.083       .  S
C933        C934   1.420       .  A
C934        C935   1.519       .  S
C935        F939   1.385       .  S
C935        F940   1.381       .  S
C935        F941   1.384       .  S
C938        F942   1.383       .  S
C938        F943   1.383       .  S
C938        F944   1.384       .  S
C945        C946   1.406       .  A
C945        C950   1.422       .  A
C945        H952   1.083       .  S
C946        C947   1.425       .  A
C947        C948   1.416       .  A
C947        C954   1.517       .  S
C948        C949   1.403       .  A
C948        H953   1.083       .  S
C949        C950   1.428       .  A
C950        C951   1.517       .  S
C951        F955   1.385       .  S
C951        F956   1.381       .  S
C951        F957   1.382       .  S
C954        F958   1.381       .  S
C954        F959   1.384       .  S
C954        F960   1.385       .  S
C961        C962   1.406       .  A
C961        C966   1.409       .  A
C961        H968   1.083       .  S
C962        C963   1.412       .  A
C963        C964   1.400       .  A
C963        C970   1.519       .  S
C964        C965   1.406       .  A
C964        H969   1.084       .  S
C965        C966   1.414       .  A
C966        C967   1.516       .  S
C967        F971   1.385       .  S
C967        F972   1.382       .  S
C967        F973   1.383       .  S
C970        F974   1.383       .  S
C970        F975   1.382       .  S
C970        F976   1.385       .  S
C977        C978   1.413       .  A
C977        C982   1.409       .  A
C977        H984   1.081       .  S
C978        C979   1.422       .  A
C979        C980   1.413       .  A
C979        C986   1.520       .  S
C980        C981   1.412       .  A
C980        H985   1.081       .  S
C981        C982   1.425       .  A
C982        C983   1.526       .  S
C983        F987   1.385       .  S
C983        F988   1.384       .  S
C983        F989   1.383       .  S
C986        F990   1.383       .  S
C986        F991   1.383       .  S
C986        F992   1.384       .  S
C993        C994   1.406       .  A
C993        C998   1.399   1_565  A
C993       H1000   1.081       .  S
C994        C995   1.420       .  A
C995        C996   1.401   1_565  A
C995       C1002   1.515       .  S
C996        C997   1.406       .  A
C996       H1001   1.084       .  S
C997        C998   1.420       .  A
C998        C999   1.518       .  S
C999       F1003   1.385       .  S
C999       F1004   1.384       .  S
C999       F1005   1.383       .  S
C1002      F1006   1.384       .  S
C1002      F1007   1.383       .  S
C1002      F1008   1.385       .  S
C1009      C1010   1.405       .  A
C1009      C1014   1.399       .  A
C1009      H1016   1.081       .  S
C1010      C1011   1.420       .  A
C1011      C1012   1.407       .  A
C1011      C1018   1.519       .  S
C1012      C1013   1.401       .  A
C1012      H1017   1.083       .  S
C1013      C1014   1.408       .  A
C1014      C1015   1.518       .  S
C1015      F1019   1.385       .  S
C1015      F1020   1.384       .  S
C1015      F1021   1.382       .  S
C1018      F1022   1.382       .  S
C1018      F1023   1.383       .  S
C1018      F1024   1.385       .  S
C1025      C1026   1.402       .  A
C1025      C1030   1.415       .  A
C1025      H1032   1.083       .  S
C1026      C1027   1.424       .  A
C1027      C1028   1.416       .  A
C1027      C1034   1.519       .  S
C1028      C1029   1.405       .  A
C1028      H1033   1.083       .  S
C1029      C1030   1.424       .  A
C1030      C1031   1.516       .  S
C1031      F1035   1.384       .  S
C1031      F1036   1.384       .  S
C1031      F1037   1.382       .  S
C1034      F1038   1.382       .  S
C1034      F1039   1.383       .  S
C1034      F1040   1.385       .  S
C1041      C1042   1.404       .  A
C1041      C1046   1.413       .  A
C1041      H1048   1.084       .  S
C1042      C1043   1.430       .  A
C1043      C1044   1.418       .  A
C1043      C1050   1.520       .  S
C1044      C1045   1.402       .  A
C1044      H1049   1.083       .  S
C1045      C1046   1.423       .  A
C1046      C1047   1.519       .  S
C1047      F1051   1.385       .  S
C1047      F1052   1.382       .  S
C1047      F1053   1.384       .  S
C1050      F1054   1.380       .  S
C1050      F1055   1.382       .  S
C1050      F1056   1.385       .  S
C1057      C1058   1.406       .  A
C1057      C1062   1.405       .  A
C1057      H1064   1.082       .  S
C1058      C1059   1.423       .  A
C1059      C1060   1.403       .  A
C1059      C1066   1.518       .  S
C1060      C1061   1.399       .  A
C1060      H1065   1.084       .  S
C1061      C1062   1.415       .  A
C1062      C1063   1.517       .  S
C1063      F1067   1.385       .  S
C1063      F1068   1.380       .  S
C1063      F1069   1.381       .  S
C1066      F1070   1.383       .  S
C1066      F1071   1.382       .  S
C1066      F1072   1.385       .  S
C1073      C1074   1.404       .  A
C1073      C1078   1.399   1_554  A
C1073      H1080   1.080       .  S
C1074      C1075   1.413       .  A
C1075      C1076   1.403   1_554  A
C1075      C1082   1.511       .  S
C1076      C1077   1.407       .  A
C1076      H1081   1.084       .  S
C1077      C1078   1.428       .  A
C1078      C1079   1.526       .  S
C1079      F1083   1.385       .  S
C1079      F1084   1.383       .  S
C1079      F1085   1.380       .  S
C1082      F1086   1.382       .  S
C1082      F1087   1.384       .  S
C1082      F1088   1.384       .  S
C1089      C1090   1.404       .  A
C1089      C1094   1.402       .  A
C1089      H1096   1.084       .  S
C1090      C1091   1.415       .  A
C1091      C1092   1.405       .  A
C1091      C1098   1.515       .  S
C1092      C1093   1.401       .  A
C1092      H1097   1.083       .  S
C1093      C1094   1.409       .  A
C1094      C1095   1.511       .  S
C1095      F1099   1.385       .  S
C1095      F1100   1.378       .  S
C1095      F1101   1.383       .  S
C1098      F1102   1.383       .  S
C1098      F1103   1.377       .  S
C1098      F1104   1.385       .  S
C1105      C1106   1.403       .  A
C1105      C1110   1.412       .  A
C1105      H1112   1.083       .  S
C1106      C1107   1.427       .  A
C1107      C1108   1.408       .  A
C1107      C1114   1.526       .  S
C1108      C1109   1.401       .  A
C1108      H1113   1.077       .  S
C1109      C1110   1.423       .  A
C1110      C1111   1.521       .  S
C1111      F1115   1.384       .  S
C1111      F1116   1.383       .  S
C1111      F1117   1.382       .  S
C1114      F1118   1.380       .  S
C1114      F1119   1.383       .  S
C1114      F1120   1.385       .  S
C1121      C1122   1.405       .  A
C1121      C1126   1.406       .  A
C1121      H1128   1.082       .  S
C1122      C1123   1.425       .  A
C1123      C1124   1.404       .  A
C1123      C1130   1.517       .  S
C1124      C1125   1.398       .  A
C1124      H1129   1.085       .  S
C1125      C1126   1.416       .  A
C1126      C1127   1.514       .  S
C1127      F1131   1.384       .  S
C1127      F1132   1.381       .  S
C1127      F1133   1.382       .  S
C1130      F1134   1.385       .  S
C1130      F1135   1.382       .  S
C1130      F1136   1.381       .  S
C1137      C1138   1.409       .  A
C1137      C1142   1.398       .  A
C1137      H1144   1.076       .  S
C1138      C1139   1.428       .  A
C1139      C1140   1.409       .  A
C1139      C1146   1.517       .  S
C1140      C1141   1.400       .  A
C1140      H1145   1.083       .  S
C1141      C1142   1.414       .  A
C1142      C1143   1.526       .  S
C1143      F1147   1.384       .  S
C1143      F1148   1.379       .  S
C1143      F1149   1.382       .  S
C1146      F1150   1.380       .  S
C1146      F1151   1.383       .  S
C1146      F1152   1.384       .  S
C1153      C1154   1.406       .  A
C1153      C1158   1.420       .  A
C1153      H1160   1.083       .  S
C1154      C1155   1.427       .  A
C1155      C1156   1.410       .  A
C1155      C1162   1.520       .  S
C1156      C1157   1.399       .  A
C1156      H1161   1.084       .  S
C1157      C1158   1.429       .  A
C1158      C1159   1.521       .  S
C1159      F1163   1.383       .  S
C1159      F1164   1.385       .  S
C1159      F1165   1.382       .  S
C1162      F1166   1.381       .  S
C1162      F1167   1.384       .  S
C1162      F1168   1.384       .  S
C1169      C1170   1.403       .  A
C1169      C1174   1.420       .  A
C1169      H1176   1.083       .  S
C1170      C1171   1.429       .  A
C1171      C1172   1.418       .  A
C1171      C1178   1.523       .  S
C1172      C1173   1.406       .  A
C1172      H1177   1.083       .  S
C1173      C1174   1.433       .  A
C1174      C1175   1.521       .  S
C1175      F1179   1.384       .  S
C1175      F1180   1.383       .  S
C1175      F1181   1.384       .  S
C1178      F1182   1.381       .  S
C1178      F1183   1.384       .  S
C1178      F1184   1.382       .  S
C1185      C1186   1.410       .  A
C1185      C1190   1.415       .  A
C1185      H1192   1.083       .  S
C1186      C1187   1.418       .  A
C1187      C1188   1.411       .  A
C1187      C1194   1.514       .  S
C1188      C1189   1.404       .  A
C1188      H1193   1.083       .  S
C1189      C1190   1.415       .  A
C1190      C1191   1.516       .  S
C1191      F1195   1.384       .  S
C1191      F1196   1.384       .  S
C1191      F1197   1.383       .  S
C1194      F1198   1.382       .  S
C1194      F1199   1.382       .  S
C1194      F1200   1.384       .  S
C1201      C1202   1.402       .  A
C1201      C1206   1.404       .  A
C1201      H1208   1.084       .  S
C1202      C1203   1.411       .  A
C1203      C1204   1.401       .  A
C1203      C1210   1.517       .  S
C1204      C1205   1.404       .  A
C1204      H1209   1.084       .  S
C1205      C1206   1.414       .  A
C1206      C1207   1.519       .  S
C1207      F1211   1.384       .  S
C1207      F1212   1.383       .  S
C1207      F1213   1.379       .  S
C1210      F1214   1.382       .  S
C1210      F1215   1.382       .  S
C1210      F1216   1.385       .  S
C1217      C1218   1.408       .  A
C1217      C1222   1.402       .  A
C1217      H1224   1.084       .  S
C1218      C1219   1.420       .  A
C1219      C1220   1.397       .  A
C1219      C1226   1.516       .  S
C1220      C1221   1.404       .  A
C1220      H1225   1.083       .  S
C1221      C1222   1.412       .  A
C1222      C1223   1.513       .  S
C1223      F1227   1.384       .  S
C1223      F1228   1.384   1_455  S
C1223      F1229   1.382       .  S
C1226      F1230   1.383       .  S
C1226      F1231   1.384       .  S
C1226      F1232   1.384       .  S
C1233      C1234   1.402       .  A
C1233      C1238   1.403       .  A
C1233      H1240   1.083       .  S
C1234      C1235   1.423       .  A
C1235      C1236   1.402       .  A
C1235      C1242   1.522       .  S
C1236      C1237   1.400       .  A
C1236      H1241   1.084       .  S
C1237      C1238   1.415       .  A
C1238      C1239   1.516       .  S
C1239      F1243   1.384       .  S
C1239      F1244   1.383       .  S
C1239      F1245   1.381       .  S
C1242      F1246   1.384       .  S
C1242      F1247   1.383       .  S
C1242      F1248   1.385       .  S
C1249      C1250   1.411       .  A
C1249      C1254   1.411       .  A
C1249      H1256   1.082       .  S
C1250      C1251   1.418       .  A
C1251      C1252   1.421       .  A
C1251      C1258   1.518       .  S
C1252      C1253   1.419       .  A
C1252      H1257   1.082       .  S
C1253      C1254   1.427       .  A
C1254      C1255   1.524       .  S
C1255      F1259   1.385       .  S
C1255      F1260   1.384       .  S
C1255      F1261   1.383       .  S
C1258      F1262   1.384       .  S
C1258      F1263   1.384       .  S
C1258      F1264   1.383       .  S
C1265      C1266   1.408       .  A
C1265      C1270   1.405       .  A
C1265      H1272   1.082       .  S
C1266      C1267   1.427       .  A
C1267      C1268   1.401       .  A
C1267      C1274   1.521       .  S
C1268      C1269   1.396       .  A
C1268      H1273   1.081       .  S
C1269      C1270   1.414       .  A
C1270      C1271   1.520       .  S
C1271      F1275   1.384       .  S
C1271      F1276   1.383       .  S
C1271      F1277   1.383       .  S
C1274      F1278   1.386       .  S
C1274      F1279   1.383       .  S
C1274      F1280   1.382       .  S
C1281      C1282   1.406       .  A
C1281      C1286   1.416       .  A
C1281      H1288   1.079       .  S
C1282      C1283   1.419       .  A
C1283      C1284   1.412       .  A
C1283      C1290   1.513       .  S
C1284      C1285   1.402       .  A
C1284      H1289   1.083       .  S
C1285      C1286   1.415       .  A
C1286      C1287   1.516       .  S
C1287      F1291   1.384       .  S
C1287      F1292   1.384       .  S
C1287      F1293   1.382       .  S
C1290      F1294   1.379       .  S
C1290      F1295   1.380       .  S
C1290      F1296   1.385       .  S
C1297      C1298   1.413       .  A
C1297      C1302   1.411       .  A
C1297      H1304   1.082       .  S
C1298      C1299   1.421       .  A
C1299      C1300   1.408       .  A
C1299      C1306   1.525       .  S
C1300      C1301   1.412       .  A
C1300      H1305   1.082       .  S
C1301      C1302   1.418       .  A
C1302      C1303   1.519       .  S
C1303      F1307   1.385       .  S
C1303      F1308   1.383       .  S
C1303      F1309   1.382       .  S
C1306      F1310   1.381       .  S
C1306      F1311   1.381       .  S
C1306      F1312   1.385       .  S
C1313      C1314   1.408       .  A
C1313      C1318   1.398       .  A
C1313      H1320   1.082       .  S
C1314      C1315   1.416       .  A
C1315      C1316   1.409       .  A
C1315      C1322   1.518       .  S
C1316      C1317   1.404       .  A
C1316      H1321   1.083       .  S
C1317      C1318   1.409       .  A
C1318      C1319   1.520       .  S
C1319      F1323   1.382       .  S
C1319      F1324   1.385       .  S
C1319      F1325   1.384       .  S
C1322      F1326   1.383       .  S
C1322      F1327   1.384       .  S
C1322      F1328   1.384       .  S
C1329      C1330   1.402       .  A
C1329      C1334   1.415       .  A
C1329      H1336   1.083       .  S
C1330      C1331   1.426       .  A
C1331      C1332   1.419       .  A
C1331      C1338   1.516       .  S
C1332      C1333   1.404       .  A
C1332      H1337   1.083       .  S
C1333      C1334   1.432       .  A
C1334      C1335   1.523       .  S
C1335      F1339   1.386       .  S
C1335      F1340   1.383       .  S
C1335      F1341   1.382       .  S
C1338      F1342   1.382       .  S
C1338      F1343   1.383       .  S
C1338      F1344   1.385       .  S
C1345      C1346   1.402       .  A
C1345      C1350   1.406       .  A
C1345      H1352   1.083       .  S
C1346      C1347   1.407       .  A
C1347      C1348   1.399       .  A
C1347      C1354   1.521       .  S
C1348      C1349   1.412       .  A
C1348      H1353   1.083       .  S
C1349      C1350   1.418       .  A
C1350      C1351   1.517       .  S
C1351      F1355   1.385       .  S
C1351      F1356   1.383       .  S
C1351      F1357   1.383       .  S
C1354      F1358   1.384       .  S
C1354      F1359   1.382       .  S
C1354      F1360   1.385       .  S
C1361      C1362   1.409       .  A
C1361      C1366   1.402   1_545  A
C1361      H1368   1.084       .  S
C1362      C1363   1.419       .  A
C1363      C1364   1.399   1_545  A
C1363      C1370   1.515       .  S
C1364      C1365   1.405       .  A
C1364      H1369   1.081       .  S
C1365      C1366   1.412       .  A
C1366      C1367   1.512       .  S
C1367      F1371   1.384       .  S
C1367      F1372   1.382       .  S
C1367      F1373   1.385       .  S
C1370      F1374   1.383       .  S
C1370      F1375   1.384       .  S
C1370      F1376   1.386       .  S
C1377      C1378   1.402       .  A
C1377      C1382   1.407       .  A
C1377      H1384   1.084       .  S
C1378      C1379   1.412       .  A
C1379      C1380   1.407       .  A
C1379      C1386   1.516       .  S
C1380      C1381   1.404       .  A
C1380      H1385   1.083       .  S
C1381      C1382   1.416       .  A
C1382      C1383   1.519       .  S
C1383      F1387   1.384       .  S
C1383      F1388   1.382       .  S
C1383      F1389   1.383       .  S
C1386      F1390   1.383       .  S
C1386      F1391   1.381       .  S
C1386      F1392   1.385       .  S
C1393      C1394   1.403       .  A
C1393      C1398   1.412       .  A
C1393      H1400   1.083       .  S
C1394      C1395   1.410       .  A
C1395      C1396   1.402       .  A
C1395      C1402   1.519       .  S
C1396      C1397   1.406       .  A
C1396      H1401   1.084       .  S
C1397      C1398   1.418       .  A
C1398      C1399   1.517       .  S
C1399      F1403   1.384       .  S
C1399      F1404   1.382       .  S
C1399      F1405   1.382       .  S
C1402      F1406   1.383       .  S
C1402      F1407   1.384       .  S
C1402      F1408   1.384       .  S
C1409      C1410   1.405       .  A
C1409      C1414   1.414       .  A
C1409      H1416   1.083       .  S
C1410      C1411   1.430       .  A
C1411      C1412   1.406       .  A
C1411      C1418   1.523       .  S
C1412      C1413   1.397       .  A
C1412      H1417   1.082       .  S
C1413      C1414   1.423       .  A
C1414      C1415   1.519       .  S
C1415      F1419   1.385       .  S
C1415      F1420   1.381       .  S
C1415      F1421   1.383       .  S
C1418      F1422   1.383       .  S
C1418      F1423   1.380       .  S
C1418      F1424   1.386       .  S
C1425      C1426   1.412       .  A
C1425      C1430   1.410       .  A
C1425      H1432   1.080       .  S
C1426      C1427   1.419       .  A
C1427      C1428   1.421       .  A
C1427      C1434   1.518       .  S
C1428      C1429   1.419       .  A
C1428      H1433   1.080       .  S
C1429      C1430   1.427       .  A
C1430      C1431   1.525       .  S
C1431      F1435   1.385       .  S
C1431      F1436   1.384       .  S
C1431      F1437   1.382       .  S
C1434      F1438   1.384       .  S
C1434      F1439   1.383       .  S
C1434      F1440   1.384       .  S
C1441      C1442   1.407       .  A
C1441      C1446   1.406       .  A
C1441      H1448   1.084       .  S
C1442      C1443   1.435       .  A
C1443      C1444   1.412       .  A
C1443      C1450   1.524       .  S
C1444      C1445   1.399       .  A
C1444      H1449   1.082       .  S
C1445      C1446   1.423       .  A
C1446      C1447   1.522       .  S
C1447      F1451   1.384       .  S
C1447      F1452   1.382       .  S
C1447      F1453   1.382       .  S
C1450      F1454   1.381       .  S
C1450      F1455   1.383       .  S
C1450      F1456   1.385       .  S
C1457      C1458   1.404       .  A
C1457      C1462   1.400       .  A
C1457      H1464   1.085       .  S
C1458      C1459   1.421       .  A
C1459      C1460   1.408       .  A
C1459      C1466   1.520       .  S
C1460      C1461   1.404       .  A
C1460      H1465   1.084       .  S
C1461      C1462   1.419       .  A
C1462      C1463   1.521       .  S
C1463      F1467   1.383       .  S
C1463      F1468   1.377       .  S
C1463      F1469   1.383       .  S
C1466      F1470   1.382       .  S
C1466      F1471   1.384       .  S
C1466      F1472   1.385       .  S
C1473      C1474   1.409       .  A
C1473      C1478   1.417       .  A
C1473      H1480   1.083       .  S
C1474      C1475   1.418       .  A
C1475      C1476   1.418       .  A
C1475      C1482   1.517       .  S
C1476      C1477   1.411       .  A
C1476      H1481   1.083       .  S
C1477      C1478   1.422       .  A
C1478      C1479   1.519       .  S
C1479      F1483   1.385       .  S
C1479      F1484   1.383       .  S
C1479      F1485   1.382       .  S
C1482      F1486   1.382       .  S
C1482      F1487   1.384       .  S
C1482      F1488   1.385       .  S
C1489      C1490   1.399       .  A
C1489      C1494   1.404       .  A
C1489      H1496   1.084       .  S
C1490      C1491   1.406       .  A
C1491      C1492   1.398       .  A
C1491      C1498   1.518       .  S
C1492      C1493   1.406       .  A
C1492      H1497   1.081       .  S
C1493      C1494   1.421       .  A
C1494      C1495   1.519       .  S
C1495      F1499   1.384       .  S
C1495      F1500   1.381       .  S
C1495      F1501   1.383       .  S
C1498      F1502   1.383       .  S
C1498      F1503   1.383       .  S
C1498      F1504   1.384       .  S
C1505      C1506   1.408       .  A
C1505      C1510   1.403       .  A
C1505      H1512   1.084       .  S
C1506      C1507   1.420       .  A
C1507      C1508   1.401       .  A
C1507      C1514   1.516       .  S
C1508      C1509   1.403       .  A
C1508      H1513   1.078       .  S
C1509      C1510   1.414       .  A
C1510      C1511   1.512       .  S
C1511      F1515   1.385       .  S
C1511      F1516   1.382       .  S
C1511      F1517   1.384   1_455  S
C1514      F1518   1.383       .  S
C1514      F1519   1.384       .  S
C1514      F1520   1.385       .  S
C1521      C1522   1.405       .  A
C1521      C1526   1.411       .  A
C1521      H1528   1.083       .  S
C1522      C1523   1.411       .  A
C1523      C1524   1.397       .  A
C1523      C1530   1.521       .  S
C1524      C1525   1.410       .  A
C1524      H1529   1.083       .  S
C1525      C1526   1.422       .  A
C1526      C1527   1.519       .  S
C1527      F1531   1.385       .  S
C1527      F1532   1.383       .  S
C1527      F1533   1.382       .  S
C1530      F1534   1.383       .  S
C1530      F1535   1.381       .  S
C1530      F1536   1.385       .  S
C1537      C1538   1.400       .  A
C1537      C1542   1.404       .  A
C1537      H1544   1.081       .  S
C1538      C1539   1.416       .  A
C1539      C1540   1.405       .  A
C1539      C1546   1.517       .  S
C1540      C1541   1.404       .  A
C1540      H1545   1.083       .  S
C1541      C1542   1.422       .  A
C1542      C1543   1.521       .  S
C1543      F1547   1.384       .  S
C1543      F1548   1.383       .  S
C1543      F1549   1.382       .  S
C1546      F1550   1.382       .  S
C1546      F1551   1.379       .  S
C1546      F1552   1.385       .  S
C1553      C1554   1.404       .  A
C1553      C1558   1.419       .  A
C1553      H1560   1.083       .  S
C1554      C1555   1.428       .  A
C1555      C1556   1.417       .  A
C1555      C1562   1.520       .  S
C1556      C1557   1.403       .  A
C1556      H1561   1.083       .  S
C1557      C1558   1.426       .  A
C1558      C1559   1.518       .  S
C1559      F1563   1.384       .  S
C1559      F1564   1.383       .  S
C1559      F1565   1.381       .  S
C1562      F1566   1.382       .  S
C1562      F1567   1.383       .  S
C1562      F1568   1.385       .  S
C1569      C1570   1.409       .  A
C1569      C1574   1.417       .  A
C1569      H1576   1.082       .  S
C1570      C1571   1.417       .  A
C1571      C1572   1.412       .  A
C1571      C1578   1.516       .  S
C1572      C1573   1.409       .  A
C1572      H1577   1.084       .  S
C1573      C1574   1.417       .  A
C1574      C1575   1.516       .  S
C1575      F1579   1.385       .  S
C1575      F1580   1.383       .  S
C1575      F1581   1.383       .  S
C1578      F1582   1.382       .  S
C1578      F1583   1.382       .  S
C1578      F1584   1.385       .  S
C1585      C1586   1.394       .  A
C1585      C1590   1.398       .  A
C1585      H1592   1.084       .  S
C1586      C1587   1.414       .  A
C1587      C1588   1.407       .  A
C1587      C1594   1.518       .  S
C1588      C1589   1.407       .  A
C1588      H1593   1.083       .  S
C1589      C1590   1.426       .  A
C1590      C1591   1.521       .  S
C1591      F1595   1.385       .  S
C1591      F1596   1.383       .  S
C1591      F1597   1.381       .  S
C1594      F1598   1.383       .  S
C1594      F1599   1.382       .  S
C1594      F1600   1.384       .  S
C1601      C1602   1.393       .  A
C1601      C1606   1.396       .  A
C1601      H1608   1.084   1_655  S
C1602      C1603   1.414       .  A
C1603      C1604   1.409       .  A
C1603      C1610   1.514       .  S
C1604      C1605   1.404       .  A
C1604      H1609   1.083       .  S
C1605      C1606   1.426       .  A
C1606      C1607   1.519       .  S
C1607      F1611   1.386       .  S
C1607      F1612   1.375       .  S
C1607      F1613   1.383       .  S
C1610      F1614   1.381       .  S
C1610      F1615   1.383   1_655  S
C1610      F1616   1.385       .  S
C1617      C1618   1.407       .  A
C1617      C1622   1.408       .  A
C1617      H1624   1.083       .  S
C1618      C1619   1.415       .  A
C1619      C1620   1.410       .  A
C1619      C1626   1.517       .  S
C1620      C1621   1.406       .  A
C1620      H1625   1.081       .  S
C1621      C1622   1.415       .  A
C1622      C1623   1.519       .  S
C1623      F1627   1.385       .  S
C1623      F1628   1.382       .  S
C1623      F1629   1.383       .  S
C1626      F1630   1.384       .  S
C1626      F1631   1.382       .  S
C1626      F1632   1.385       .  S
C1633      C1634   1.404       .  A
C1633      C1638   1.413   1_655  A
C1633      H1640   1.079       .  S
C1634      C1635   1.436       .  A
C1635      C1636   1.423       .  A
C1635      C1642   1.521       .  S
C1636      C1637   1.406       .  A
C1636      H1641   1.082       .  S
C1637      C1638   1.439   1_655  A
C1638      C1639   1.529       .  S
C1639      F1643   1.385       .  S
C1639      F1644   1.384       .  S
C1639      F1645   1.383       .  S
C1642      F1646   1.383       .  S
C1642      F1647   1.383       .  S
C1642      F1648   1.385       .  S
C1649      C1650   1.406       .  A
C1649      C1654   1.404       .  A
C1649      H1656   1.083   1_655  S
C1650      C1651   1.416       .  A
C1651      C1652   1.404       .  A
C1651      C1658   1.517       .  S
C1652      C1653   1.400       .  A
C1652      H1657   1.084       .  S
C1653      C1654   1.410       .  A
C1654      C1655   1.516       .  S
C1655      F1659   1.385       .  S
C1655      F1660   1.383       .  S
C1655      F1661   1.383       .  S
C1658      F1662   1.382       .  S
C1658      F1663   1.383       .  S
C1658      F1664   1.384       .  S
C1665      C1666   1.402       .  A
C1665      C1670   1.406       .  A
C1665      H1672   1.083       .  S
C1666      C1667   1.410       .  A
C1667      C1668   1.399       .  A
C1667      C1674   1.518       .  S
C1668      C1669   1.403       .  A
C1668      H1673   1.083       .  S
C1669      C1670   1.414       .  A
C1670      C1671   1.518       .  S
C1671      F1675   1.385       .  S
C1671      F1676   1.383       .  S
C1671      F1677   1.382       .  S
C1674      F1678   1.383       .  S
C1674      F1679   1.383       .  S
C1674      F1680   1.385       .  S
C1681      C1682   1.417       .  A
C1681      C1686   1.416       .  A
C1681      H1688   1.080       .  S
C1682      C1683   1.424       .  A
C1683      C1684   1.407   1_655  A
C1683      C1690   1.523       .  S
C1684      C1685   1.410   1_455  A
C1684      H1689   1.082       .  S
C1685      C1686   1.418       .  A
C1686      C1687   1.519       .  S
C1687      F1691   1.384       .  S
C1687      F1692   1.384       .  S
C1687      F1693   1.383       .  S
C1690      F1694   1.383       .  S
C1690      F1695   1.383       .  S
C1690      F1696   1.385   1_655  S
C1697      C1698   1.410       .  A
C1697      C1702   1.409       .  A
C1697      H1704   1.082       .  S
C1698      C1699   1.420       .  A
C1699      C1700   1.425       .  A
C1699      C1706   1.517       .  S
C1700      C1701   1.419       .  A
C1700      H1705   1.083       .  S
C1701      C1702   1.422       .  A
C1702      C1703   1.521       .  S
C1703      F1707   1.384       .  S
C1703      F1708   1.383       .  S
C1703      F1709   1.382       .  S
C1706      F1710   1.384       .  S
C1706      F1711   1.383       .  S
C1706      F1712   1.385       .  S
C1713      C1714   1.408       .  A
C1713      C1718   1.401       .  A
C1713      H1720   1.084       .  S
C1714      C1715   1.426       .  A
C1715      C1716   1.403       .  A
C1715      C1722   1.520   1_455  S
C1716      C1717   1.404       .  A
C1716      H1721   1.082       .  S
C1717      C1718   1.417       .  A
C1718      C1719   1.515       .  S
C1719      F1723   1.385       .  S
C1719      F1724   1.383       .  S
C1719      F1725   1.382       .  S
C1722      F1726   1.383       .  S
C1722      F1727   1.383       .  S
C1722      F1728   1.385       .  S
C1729      C1730   1.394       .  A
C1729      C1734   1.398       .  A
C1729      H1736   1.084       .  S
C1730      C1731   1.415       .  A
C1731      C1732   1.406       .  A
C1731      C1738   1.516       .  S
C1732      C1733   1.400       .  A
C1732      H1737   1.083       .  S
C1733      C1734   1.417       .  A
C1734      C1735   1.516       .  S
C1735      F1739   1.384       .  S
C1735      F1740   1.379       .  S
C1735      F1741   1.384       .  S
C1738      F1742   1.383       .  S
C1738      F1743   1.383       .  S
C1738      F1744   1.385       .  S
C1745      C1746   1.403       .  A
C1745      C1750   1.396       .  A
C1745      H1752   1.084       .  S
C1746      C1747   1.413       .  A
C1747      C1748   1.405       .  A
C1747      C1754   1.516       .  S
C1748      C1749   1.402       .  A
C1748      H1753   1.084       .  S
C1749      C1750   1.407       .  A
C1750      C1751   1.517       .  S
C1751      F1755   1.385       .  S
C1751      F1756   1.382   1_655  S
C1751      F1757   1.383       .  S
C1754      F1758   1.382       .  S
C1754      F1759   1.382       .  S
C1754      F1760   1.385       .  S
C1761      C1762   1.405       .  A
C1761      C1766   1.419       .  A
C1761      H1768   1.082       .  S
C1762      C1763   1.432       .  A
C1763      C1764   1.414       .  A
C1763      C1770   1.523       .  S
C1764      C1765   1.402       .  A
C1764      H1769   1.083       .  S
C1765      C1766   1.427       .  A
C1766      C1767   1.519       .  S
C1767      F1771   1.384       .  S
C1767      F1772   1.383       .  S
C1767      F1773   1.383       .  S
C1770      F1774   1.384       .  S
C1770      F1775   1.383       .  S
C1770      F1776   1.385       .  S
C1777      C1778   1.407       .  A
C1777      C1782   1.411       .  A
C1777      H1784   1.083   1_655  S
C1778      C1779   1.417       .  A
C1779      C1780   1.414       .  A
C1779      C1786   1.517       .  S
C1780      C1781   1.410       .  A
C1780      H1785   1.083       .  S
C1781      C1782   1.419       .  A
C1782      C1783   1.519       .  S
C1783      F1787   1.385       .  S
C1783      F1788   1.382       .  S
C1783      F1789   1.383       .  S
C1786      F1790   1.383       .  S
C1786      F1791   1.382       .  S
C1786      F1792   1.385       .  S
C1793      C1794   1.405       .  A
C1793      C1798   1.398       .  A
C1793      H1800   1.083       .  S
C1794      C1795   1.414       .  A
C1795      C1796   1.399       .  A
C1795      C1802   1.513   1_455  S
C1796      C1797   1.406       .  A
C1796      H1801   1.081       .  S
C1797      C1798   1.414       .  A
C1798      C1799   1.513       .  S
C1799      F1803   1.384       .  S
C1799      F1804   1.383       .  S
C1799      F1805   1.383       .  S
C1802      F1806   1.382       .  S
C1802      F1807   1.384       .  S
C1802      F1808   1.384       .  S
C1809      C1810   1.405       .  A
C1809      C1814   1.402       .  A
C1809      H1816   1.082       .  S
C1810      C1811   1.422       .  A
C1811      C1812   1.402       .  A
C1811      C1818   1.517       .  S
C1812      C1813   1.398       .  A
C1812      H1817   1.084       .  S
C1813      C1814   1.416       .  A
C1814      C1815   1.519       .  S
C1815      F1819   1.385       .  S
C1815      F1820   1.383       .  S
C1815      F1821   1.382       .  S
C1818      F1822   1.384       .  S
C1818      F1823   1.382       .  S
C1818      F1824   1.385       .  S
C1825      C1826   1.403       .  A
C1825      C1830   1.394       .  A
C1825      H1832   1.080   1_655  S
C1826      C1827   1.420       .  A
C1827      C1828   1.406       .  A
C1827      C1834   1.520       .  S
C1828      C1829   1.402       .  A
C1828      H1833   1.084       .  S
C1829      C1830   1.413       .  A
C1830      C1831   1.520       .  S
C1831      F1835   1.383       .  S
C1831      F1836   1.380       .  S
C1831      F1837   1.384       .  S
C1834      F1838   1.380       .  S
C1834      F1839   1.384       .  S
C1834      F1840   1.384       .  S
C1841      C1842   1.408       .  A
C1841      C1846   1.414       .  A
C1841      H1848   1.083       .  S
C1842      C1843   1.417       .  A
C1843      C1844   1.416       .  A
C1843      C1850   1.517       .  S
C1844      C1845   1.408       .  A
C1844      H1849   1.083       .  S
C1845      C1846   1.419       .  A
C1846      C1847   1.519       .  S
C1847      F1851   1.385       .  S
C1847      F1852   1.382       .  S
C1847      F1853   1.380       .  S
C1850      F1854   1.385       .  S
C1850      F1855   1.384       .  S
C1850      F1856   1.382       .  S
C1857      C1858   1.402       .  A
C1857      C1862   1.412       .  A
C1857      H1864   1.083       .  S
C1858      C1859   1.426       .  A
C1859      C1860   1.419       .  A
C1859      C1866   1.520       .  S
C1860      C1861   1.406       .  A
C1860      H1865   1.083       .  S
C1861      C1862   1.425       .  A
C1862      C1863   1.519   1_655  S
C1863      F1867   1.385       .  S
C1863      F1868   1.381       .  S
C1863      F1869   1.383       .  S
C1866      F1870   1.383       .  S
C1866      F1871   1.382       .  S
C1866      F1872   1.385       .  S
C1873      C1874   1.404       .  A
C1873      C1878   1.401       .  A
C1873      H1880   1.082       .  S
C1874      C1875   1.426       .  A
C1875      C1876   1.406       .  A
C1875      C1882   1.520       .  S
C1876      C1877   1.400       .  A
C1876      H1881   1.084       .  S
C1877      C1878   1.413       .  A
C1878      C1879   1.516       .  S
C1879      F1883   1.384       .  S
C1879      F1884   1.382       .  S
C1879      F1885   1.381       .  S
C1882      F1886   1.383   1_545  S
C1882      F1887   1.383       .  S
C1882      F1888   1.385       .  S
C1889      C1890   1.406       .  A
C1889      C1894   1.399       .  A
C1889      H1896   1.081       .  S
C1890      C1891   1.420       .  A
C1891      C1892   1.404       .  A
C1891      C1898   1.518       .  S
C1892      C1893   1.398       .  A
C1892      H1897   1.084       .  S
C1893      C1894   1.407       .  A
C1894      C1895   1.517       .  S
C1895      F1899   1.385       .  S
C1895      F1900   1.382       .  S
C1895      F1901   1.383       .  S
C1898      F1902   1.383       .  S
C1898      F1903   1.381       .  S
C1898      F1904   1.385       .  S
C1905      C1906   1.400       .  A
C1905      C1910   1.411       .  A
C1905      H1912   1.084       .  S
C1906      C1907   1.419       .  A
C1907      C1908   1.415       .  A
C1907      C1914   1.514       .  S
C1908      C1909   1.404       .  A
C1908      H1913   1.083       .  S
C1909      C1910   1.423       .  A
C1910      C1911   1.518       .  S
C1911      F1915   1.385       .  S
C1911      F1916   1.383       .  S
C1911      F1917   1.383       .  S
C1914      F1918   1.382       .  S
C1914      F1919   1.381       .  S
C1914      F1920   1.384       .  S
C1921      C1922   1.409       .  A
C1921      C1926   1.415       .  A
C1921      H1928   1.083       .  S
C1922      C1923   1.418       .  A
C1923      C1924   1.420       .  A
C1923      C1930   1.517       .  S
C1924      C1925   1.413       .  A
C1924      H1929   1.083       .  S
C1925      C1926   1.422       .  A
C1926      C1927   1.521       .  S
C1927      F1931   1.384       .  S
C1927      F1932   1.382       .  S
C1927      F1933   1.384       .  S
C1930      F1934   1.383       .  S
C1930      F1935   1.382       .  S
C1930      F1936   1.385       .  S
C1937      C1938   1.401       .  A
C1937      C1942   1.398       .  A
C1937      H1944   1.082       .  S
C1938      C1939   1.418       .  A
C1939      C1940   1.409       .  A
C1939      C1946   1.514       .  S
C1940      C1941   1.408       .  A
C1940      H1945   1.083       .  S
C1941      C1942   1.431       .  A
C1942      C1943   1.528       .  S
C1943      F1947   1.386       .  S
C1943      F1948   1.382       .  S
C1943      F1949   1.381       .  S
C1946      F1950   1.381       .  S
C1946      F1951   1.381       .  S
C1946      F1952   1.384       .  S
C1953      C1954   1.409       .  A
C1953      C1958   1.403       .  A
C1953      H1960   1.081       .  S
C1954      C1955   1.420       .  A
C1955      C1956   1.406       .  A
C1955      C1962   1.515       .  S
C1956      C1957   1.404       .  A
C1956      H1961   1.079       .  S
C1957      C1958   1.421       .  A
C1958      C1959   1.523       .  S
C1959      F1963   1.385       .  S
C1959      F1964   1.383       .  S
C1959      F1965   1.383       .  S
C1962      F1966   1.379       .  S
C1962      F1967   1.384       .  S
C1962      F1968   1.385       .  S
C1969      C1970   1.404       .  A
C1969      C1974   1.417       .  A
C1969      H1976   1.083       .  S
C1970      C1971   1.425       .  A
C1971      C1972   1.416       .  A
C1971      C1978   1.517       .  S
C1972      C1973   1.403       .  A
C1972      H1977   1.084       .  S
C1973      C1974   1.421       .  A
C1974      C1975   1.513       .  S
C1975      F1979   1.384       .  S
C1975      F1980   1.381       .  S
C1975      F1981   1.382       .  S
C1978      F1982   1.382       .  S
C1978      F1983   1.382       .  S
C1978      F1984   1.383       .  S
C1985      C1986   1.402       .  A
C1985      C1990   1.408       .  A
C1985      H1992   1.082       .  S
C1986      C1987   1.429       .  A
C1987      C1988   1.418       .  A
C1987      C1994   1.520       .  S
C1988      C1989   1.406       .  A
C1988      H1993   1.082       .  S
C1989      C1990   1.429       .  A
C1990      C1991   1.520       .  S
C1991      F1995   1.385       .  S
C1991      F1996   1.382       .  S
C1991      F1997   1.382       .  S
C1994      F1998   1.383       .  S
C1994      F1999   1.381       .  S
C1994      F2000   1.385       .  S
C2001      C2002   1.403       .  A
C2001      C2006   1.400       .  A
C2001      H2008   1.083       .  S
C2002      C2003   1.413       .  A
C2003      C2004   1.406       .  A
C2003      C2010   1.517       .  S
C2004      C2005   1.403       .  A
C2004      H2009   1.083       .  S
C2005      C2006   1.409       .  A
C2006      C2007   1.515       .  S
C2007      F2011   1.385       .  S
C2007      F2012   1.383       .  S
C2007      F2013   1.381       .  S
C2010      F2014   1.383       .  S
C2010      F2015   1.384       .  S
C2010      F2016   1.385       .  S
C2017      C2018   1.406       .  A
C2017      C2022   1.404       .  A
C2017      H2024   1.082       .  S
C2018      C2019   1.426       .  A
C2019      C2020   1.406       .  A
C2019      C2026   1.521       .  S
C2020      C2021   1.399       .  A
C2020      H2025   1.084       .  S
C2021      C2022   1.415       .  A
C2022      C2023   1.517       .  S
C2023      F2027   1.385       .  S
C2023      F2028   1.382       .  S
C2023      F2029   1.380       .  S
C2026      F2030   1.383       .  S
C2026      F2031   1.383       .  S
C2026      F2032   1.385       .  S
C2033      C2034   1.404       .  A
C2033      C2038   1.418       .  A
C2033      H2040   1.083       .  S
C2034      C2035   1.430       .  A
C2035      C2036   1.411       .  A
C2035      C2042   1.522       .  S
C2036      C2037   1.400       .  A
C2036      H2041   1.082       .  S
C2037      C2038   1.429       .  A
C2038      C2039   1.519       .  S
C2039      F2043   1.385       .  S
C2039      F2044   1.382       .  S
C2039      F2045   1.380       .  S
C2042      F2046   1.384       .  S
C2042      F2047   1.383       .  S
C2042      F2048   1.385       .  S
C2049      C2050   1.414       .  A
C2049      C2054   1.420       .  A
C2049      H2056   1.083       .  S
C2050      C2051   1.422       .  A
C2051      C2052   1.411       .  A
C2051      C2058   1.520       .  S
C2052      C2053   1.408       .  A
C2052      H2057   1.083       .  S
C2053      C2054   1.418       .  A
C2054      C2055   1.517       .  S
C2055      F2059   1.385       .  S
C2055      F2060   1.383       .  S
C2055      F2061   1.383       .  S
C2058      F2062   1.383       .  S
C2058      F2063   1.381       .  S
C2058      F2064   1.385       .  S
C2065      C2066   1.407       .  A
C2065      C2070   1.403       .  A
C2065      H2072   1.082       .  S
C2066      C2067   1.420       .  A
C2067      C2068   1.408       .  A
C2067      C2074   1.520       .  S
C2068      C2069   1.401       .  A
C2068      H2073   1.084       .  S
C2069      C2070   1.408       .  A
C2070      C2071   1.517       .  S
C2071      F2075   1.384       .  S
C2071      F2076   1.384       .  S
C2071      F2077   1.383       .  S
C2074      F2078   1.381       .  S
C2074      F2079   1.384       .  S
C2074      F2080   1.384       .  S
C2081      C2082   1.406       .  A
C2081      C2086   1.403       .  A
C2081      H2088   1.082       .  S
C2082      C2083   1.420       .  A
C2083      C2084   1.402       .  A
C2083      C2090   1.518       .  S
C2084      C2085   1.399       .  A
C2084      H2089   1.084       .  S
C2085      C2086   1.413       .  A
C2086      C2087   1.518       .  S
C2087      F2091   1.385       .  S
C2087      F2092   1.382       .  S
C2087      F2093   1.382       .  S
C2090      F2094   1.384       .  S
C2090      F2095   1.383       .  S
C2090      F2096   1.385       .  S
C2097      C2098   1.412       .  A
C2097      C2102   1.417       .  A
C2097      H2104   1.077       .  S
C2098      C2099   1.426       .  A
C2099      C2100   1.414       .  A
C2099      C2106   1.524       .  S
C2100      C2101   1.413       .  A
C2100      H2105   1.082       .  S
C2101      C2102   1.420       .  A
C2102      C2103   1.518   1_655  S
C2103      F2107   1.385       .  S
C2103      F2108   1.382       .  S
C2103      F2109   1.383       .  S
C2106      F2110   1.383       .  S
C2106      F2111   1.383       .  S
C2106      F2112   1.385       .  S
C2113      C2114   1.405       .  A
C2113      C2118   1.419       .  A
C2113      H2120   1.083       .  S
C2114      C2115   1.427       .  A
C2115      C2116   1.416       .  A
C2115      C2122   1.520       .  S
C2116      C2117   1.404       .  A
C2116      H2121   1.085       .  S
C2117      C2118   1.424       .  A
C2118      C2119   1.518       .  S
C2119      F2123   1.384       .  S
C2119      F2124   1.381       .  S
C2119      F2125   1.383       .  S
C2122      F2126   1.382       .  S
C2122      F2127   1.383       .  S
C2122      F2128   1.384       .  S
C2129      C2130   1.403   1_545  A
C2129      C2134   1.401       .  A
C2129      H2136   1.083       .  S
C2130      C2131   1.413       .  A
C2131      C2132   1.401       .  A
C2131      C2138   1.513       .  S
C2132      C2133   1.407       .  A
C2132      H2137   1.077       .  S
C2133      C2134   1.416   1_565  A
C2134      C2135   1.510       .  S
C2135      F2139   1.384       .  S
C2135      F2140   1.382       .  S
C2135      F2141   1.380       .  S
C2138      F2142   1.385       .  S
C2138      F2143   1.383       .  S
C2138      F2144   1.384       .  S
C2145      C2146   1.401       .  A
C2145      C2150   1.404       .  A
C2145      H2152   1.084       .  S
C2146      C2147   1.411       .  A
C2147      C2148   1.403       .  A
C2147      C2154   1.519       .  S
C2148      C2149   1.407       .  A
C2148      H2153   1.083       .  S
C2149      C2150   1.418       .  A
C2150      C2151   1.519       .  S
C2151      F2155   1.384       .  S
C2151      F2156   1.384       .  S
C2151      F2157   1.382       .  S
C2154      F2158   1.382       .  S
C2154      F2159   1.381       .  S
C2154      F2160   1.384       .  S
C2161      C2162   1.403       .  A
C2161      C2166   1.407       .  A
C2161      H2168   1.083       .  S
C2162      C2163   1.409       .  A
C2163      C2164   1.398       .  A
C2163      C2170   1.520       .  S
C2164      C2165   1.406       .  A
C2164      H2169   1.084       .  S
C2165      C2166   1.415       .  A
C2166      C2167   1.518       .  S
C2167      F2171   1.383       .  S
C2167      F2172   1.383       .  S
C2167      F2173   1.384       .  S
C2170      F2174   1.383       .  S
C2170      F2175   1.383       .  S
C2170      F2176   1.385       .  S
C2177      C2178   1.409       .  A
C2177      C2182   1.411       .  A
C2177      H2184   1.083       .  S
C2178      C2179   1.417       .  A
C2179      C2180   1.419       .  A
C2179      C2186   1.517       .  S
C2180      C2181   1.415       .  A
C2180      H2185   1.083       .  S
C2181      C2182   1.422       .  A
C2182      C2183   1.521       .  S
C2183      F2187   1.384       .  S
C2183      F2188   1.383       .  S
C2183      F2189   1.381       .  S
C2186      F2190   1.384       .  S
C2186      F2191   1.383       .  S
C2186      F2192   1.384       .  S
C2193      C2194   1.412       .  A
C2193      C2198   1.417       .  A
C2193      H2200   1.083       .  S
C2194      C2195   1.419       .  A
C2195      C2196   1.412       .  A
C2195      C2202   1.522       .  S
C2196      C2197   1.414       .  A
C2196      H2201   1.082       .  S
C2197      C2198   1.418       .  A
C2198      C2199   1.517       .  S
C2199      F2203   1.384       .  S
C2199      F2204   1.384       .  S
C2199      F2205   1.382       .  S
C2202      F2206   1.383       .  S
C2202      F2207   1.383       .  S
C2202      F2208   1.385       .  S
C2209      C2210   1.404       .  A
C2209      C2214   1.401       .  A
C2209      H2216   1.081       .  S
C2210      C2211   1.415   1_565  A
C2211      C2212   1.399       .  A
C2211      C2218   1.511       .  S
C2212      C2213   1.405   1_545  A
C2212      H2217   1.084       .  S
C2213      C2214   1.425       .  A
C2214      C2215   1.519       .  S
C2215      F2219   1.385       .  S
C2215      F2220   1.382       .  S
C2215      F2221   1.383       .  S
C2218      F2222   1.383       .  S
C2218      F2223   1.382       .  S
C2218      F2224   1.386       .  S
C2225      C2226   1.406       .  A
C2225      C2230   1.402       .  A
C2225      H2232   1.082       .  S
C2226      C2227   1.427       .  A
C2227      C2228   1.403       .  A
C2227      C2234   1.523       .  S
C2228      C2229   1.399       .  A
C2228      H2233   1.084       .  S
C2229      C2230   1.414       .  A
C2230      C2231   1.518       .  S
C2231      F2235   1.385       .  S
C2231      F2236   1.382       .  S
C2231      F2237   1.379       .  S
C2234      F2238   1.383   1_545  S
C2234      F2239   1.383   1_545  S
C2234      F2240   1.386       .  S
C2241      C2242   1.402       .  A
C2241      C2246   1.398       .  A
C2241      H2248   1.084       .  S
C2242      C2243   1.409       .  A
C2243      C2244   1.397       .  A
C2243      C2250   1.516       .  S
C2244      C2245   1.400       .  A
C2244      H2249   1.084       .  S
C2245      C2246   1.408       .  A
C2246      C2247   1.517       .  S
C2247      F2251   1.384       .  S
C2247      F2252   1.381       .  S
C2247      F2253   1.383       .  S
C2250      F2254   1.383       .  S
C2250      F2255   1.383       .  S
C2250      F2256   1.384       .  S
C2257      C2258   1.402       .  A
C2257      C2262   1.412       .  A
C2257      H2264   1.083       .  S
C2258      C2259   1.419       .  A
C2259      C2260   1.413       .  A
C2259      C2266   1.517       .  S
C2260      C2261   1.403       .  A
C2260      H2265   1.083       .  S
C2261      C2262   1.418       .  A
C2262      C2263   1.513       .  S
C2263      F2267   1.385       .  S
C2263      F2268   1.383       .  S
C2263      F2269   1.382       .  S
C2266      F2270   1.382       .  S
C2266      F2271   1.384       .  S
C2266      F2272   1.385       .  S
C2273      C2274   1.412       .  A
C2273      C2278   1.416       .  A
C2273      H2280   1.083       .  S
C2274      C2275   1.419       .  A
C2275      C2276   1.420       .  A
C2275      C2282   1.516       .  S
C2276      C2277   1.414       .  A
C2276      H2281   1.082       .  S
C2277      C2278   1.424       .  A
C2278      C2279   1.522       .  S
C2279      F2283   1.385       .  S
C2279      F2284   1.383       .  S
C2279      F2285   1.383       .  S
C2282      F2286   1.385       .  S
C2282      F2287   1.382       .  S
C2282      F2288   1.383       .  S
C2289      C2290   1.405   1_556  A
C2289      C2294   1.401       .  A
C2289      H2296   1.084       .  S
C2290      C2291   1.420       .  A
C2291      C2292   1.400       .  A
C2291      C2298   1.514       .  S
C2292      C2293   1.404       .  A
C2292      H2297   1.083       .  S
C2293      C2294   1.417   1_554  A
C2294      C2295   1.513       .  S
C2295      F2299   1.384       .  S
C2295      F2300   1.383       .  S
C2295      F2301   1.383       .  S
C2298      F2302   1.383       .  S
C2298      F2303   1.384       .  S
C2298      F2304   1.385       .  S
C2305      C2306   1.407       .  A
C2305      C2310   1.411       .  A
C2305      H2312   1.083       .  S
C2306      C2307   1.412       .  A
C2307      C2308   1.394       .  A
C2307      C2314   1.520       .  S
C2308      C2309   1.398       .  A
C2308      H2313   1.083       .  S
C2309      C2310   1.414       .  A
C2310      C2311   1.520       .  S
C2311      F2315   1.384       .  S
C2311      F2316   1.384       .  S
C2311      F2317   1.383       .  S
C2314      F2318   1.381       .  S
C2314      F2319   1.384       .  S
C2314      F2320   1.382       .  S
C2321      C2322   1.406       .  A
C2321      C2326   1.407       .  A
C2321      H2328   1.083       .  S
C2322      C2323   1.417       .  A
C2323      C2324   1.406       .  A
C2323      C2330   1.519       .  S
C2324      C2325   1.400       .  A
C2324      H2329   1.081       .  S
C2325      C2326   1.411       .  A
C2326      C2327   1.515       .  S
C2327      F2331   1.385       .  S
C2327      F2332   1.383       .  S
C2327      F2333   1.383       .  S
C2330      F2334   1.380       .  S
C2330      F2335   1.383       .  S
C2330      F2336   1.384       .  S
C2337      C2338   1.403       .  A
C2337      C2342   1.419       .  A
C2337      H2344   1.083       .  S
C2338      C2339   1.427       .  A
C2339      C2340   1.412       .  A
C2339      C2346   1.518       .  S
C2340      C2341   1.400       .  A
C2340      H2345   1.085       .  S
C2341      C2342   1.430       .  A
C2342      C2343   1.519       .  S
C2343      F2347   1.384       .  S
C2343      F2348   1.379       .  S
C2343      F2349   1.381       .  S
C2346      F2350   1.382       .  S
C2346      F2351   1.383       .  S
C2346      F2352   1.384       .  S
C2353      C2354   1.405       .  A
C2353      C2358   1.408       .  A
C2353      H2360   1.083       .  S
C2354      C2355   1.433       .  A
C2355      C2356   1.416       .  A
C2355      C2362   1.521       .  S
C2356      C2357   1.403       .  A
C2356      H2361   1.082       .  S
C2357      C2358   1.427       .  A
C2358      C2359   1.523       .  S
C2359      F2363   1.385       .  S
C2359      F2364   1.382       .  S
C2359      F2365   1.384       .  S
C2362      F2366   1.382       .  S
C2362      F2367   1.384       .  S
C2362      F2368   1.385   1_655  S
C2369      C2370   1.404       .  A
C2369      C2374   1.401       .  A
C2369      H2376   1.084       .  S
C2370      C2371   1.415   1_556  A
C2371      C2372   1.401       .  A
C2371      C2378   1.514       .  S
C2372      C2373   1.407   1_554  A
C2372      H2377   1.084       .  S
C2373      C2374   1.418       .  A
C2374      C2375   1.513       .  S
C2375      F2379   1.384       .  S
C2375      F2380   1.383       .  S
C2375      F2381   1.383       .  S
C2378      F2382   1.383       .  S
C2378      F2383   1.385       .  S
C2378      F2384   1.384       .  S
C2385      C2386   1.396       .  A
C2385      C2390   1.399       .  A
C2385      H2392   1.084       .  S
C2386      C2387   1.417       .  A
C2387      C2388   1.410       .  A
C2387      C2394   1.517       .  S
C2388      C2389   1.402       .  A
C2388      H2393   1.083       .  S
C2389      C2390   1.415       .  A
C2390      C2391   1.513       .  S
C2391      F2395   1.385       .  S
C2391      F2396   1.381       .  S
C2391      F2397   1.382       .  S
C2394      F2398   1.383       .  S
C2394      F2399   1.382       .  S
C2394      F2400   1.384       .  S
C2401      C2402   1.401       .  A
C2401      C2406   1.408       .  A
C2401      H2408   1.083       .  S
C2402      C2403   1.407       .  A
C2403      C2404   1.399       .  A
C2403      C2410   1.519       .  S
C2404      C2405   1.407       .  A
C2404      H2409   1.082       .  S
C2405      C2406   1.420       .  A
C2406      C2407   1.519       .  S
C2407      F2411   1.385       .  S
C2407      F2412   1.382       .  S
C2407      F2413   1.383       .  S
C2410      F2414   1.383       .  S
C2410      F2415   1.382       .  S
C2410      F2416   1.385       .  S
C2417      C2418   1.407       .  A
C2417      C2422   1.418       .  A
C2417      H2424   1.081       .  S
C2418      C2419   1.419       .  A
C2419      C2420   1.417       .  A
C2419      C2426   1.516       .  S
C2420      C2421   1.409       .  A
C2420      H2425   1.083       .  S
C2421      C2422   1.416       .  A
C2422      C2423   1.515       .  S
C2423      F2427   1.384       .  S
C2423      F2428   1.382       .  S
C2423      F2429   1.384       .  S
C2426      F2430   1.379       .  S
C2426      F2431   1.382       .  S
C2426      F2432   1.385       .  S
C2433      C2434   1.405       .  A
C2433      C2438   1.418       .  A
C2433      H2440   1.083       .  S
C2434      C2435   1.427       .  A
C2435      C2436   1.408       .  A
C2435      C2442   1.520       .  S
C2436      C2437   1.399       .  A
C2436      H2441   1.083       .  S
C2437      C2438   1.425       .  A
C2438      C2439   1.520       .  S
C2439      F2443   1.385       .  S
C2439      F2444   1.381       .  S
C2439      F2445   1.383       .  S
C2442      F2446   1.384       .  S
C2442      F2447   1.382       .  S
C2442      F2448   1.385       .  S
