geometry optimzed in LAMMPS
_audit_creation_date              2020-11-30 
_audit_creation_method            'lammps2cif' 
_symmetry_space_group_name_H-M    'P1' 
_symmetry_Int_Tables_number       1 
_symmetry_cell_setting            triclinic 
loop_ 
_symmetry_equiv_pos_as_xyz 
  x,y,z 
_cell_length_a                    38.00679791063123 
_cell_length_b                    38.20148194824648 
_cell_length_c                    31.0536462876162 
_cell_angle_alpha                 90.22354281971012 
_cell_angle_beta                  90.62452555588146 
_cell_angle_gamma                 122.22754921324933 
loop_ 
_atom_site_label 
_atom_site_type_symbol 
_atom_site_fract_x 
_atom_site_fract_y 
_atom_site_fract_z 
_atom_site_charge 
C1          C  0.38023691  0.11371994  0.29117633     0.03260
C2          C  0.40135094  0.09291918  0.29043238    -0.12890
C3          C  0.41441117  0.08568260  0.25122838     0.00760
C4          C  0.40779367  0.10066951  0.21281955    -0.11420
C5          C  0.38618825  0.12119623  0.21283545     0.03250
C6          C  0.37206130  0.12700392  0.25239593    -0.10840
H7          H  0.40748176  0.08224028  0.32019581     0.08850
H8          H  0.42022881  0.09675600  0.18330441     0.06370
H9          H  0.35481461  0.14220511  0.25327701     0.06220
C10         C  0.38767483  0.38797919  0.28801412     0.03260
C11         C  0.37929508  0.36749141  0.24816770    -0.12890
C12         C  0.38651776  0.38909106  0.20968794     0.00760
C13         C  0.40271966  0.43169136  0.21087109    -0.11420
C14         C  0.41195271  0.45278333  0.25046972     0.03250
C15         C  0.40377077  0.43076903  0.28907407    -0.10840
H16         H  0.36609620  0.33437589  0.24705801     0.08850
H17         H  0.40921745  0.44861398  0.18106001     0.06370
H18         H  0.41113158  0.44708975  0.31969065     0.06220
O19         O  0.21949740  0.19185175  0.03336044    -0.85220
O20         O  0.29422738  0.26164974  0.05319034    -0.82260
C21         C  0.33291469  0.28563238  0.05794263     0.98240
O22         O  0.35763605  0.28381806  0.03223560    -0.82300
O23         O  0.35277902  0.21301253  0.05506838    -0.84940
C24         C  0.33687763  0.17520445  0.06238439     1.02770
O25         O  0.30845882  0.14801196  0.03772898    -0.77700
O26         O  0.23947426  0.15097641  0.05666369    -0.77890
C27         C  0.21727571  0.16617652  0.06052814     1.02720
O28         O  0.24011465  0.20642785  0.44392700    -0.85220
O29         O  0.31111534  0.28088694  0.46357634    -0.82280
C30         C  0.33701131  0.28218893  0.43728846     0.98260
O31         O  0.35075075  0.25887934  0.44249700    -0.82310
O32         O  0.35371259  0.19113814  0.46582190    -0.84910
C33         C  0.32694089  0.16224756  0.44131594     1.02740
O34         O  0.28883908  0.14706941  0.44732098    -0.77730
O35         O  0.21726227  0.14333200  0.46600085    -0.77880
C36         C  0.21584142  0.16787858  0.43966256     1.02700
Cr37       Cr  0.26824610  0.23311715  0.99855322     1.93740
Cr38       Cr  0.34953454  0.23452463  0.49884989     1.93210
Cr39       Cr  0.26572648  0.15150256  0.00188534     1.39100
O40         O  0.29447299  0.20630133  0.49979364    -1.22970
C41         C  0.11242012  0.11634718  0.28721787     0.03260
C42         C  0.13391915  0.12692510  0.24834240    -0.12890
C43         C  0.11236039  0.11857596  0.20898503     0.00760
C44         C  0.06894349  0.09909825  0.20855024    -0.11420
C45         C  0.04732657  0.08839520  0.24747959     0.03250
C46         C  0.06916726  0.09739882  0.28673209    -0.10840
H47         H  0.16747160  0.14185251  0.24872408     0.08850
H48         H  0.05202645  0.09179383  0.17817016     0.06370
H49         H  0.05242484  0.08897473  0.31677302     0.06220
O50         O  0.11943366  0.32407086  0.44289866    -0.85220
O51         O  0.19461388  0.39374601  0.46514691    -0.82260
C52         C  0.19731069  0.42128188  0.44010406     0.98240
O53         O  0.17434223  0.43526303  0.44549602    -0.82300
O54         O  0.10684317  0.43874672  0.46625176    -0.84940
C55         C  0.07948690  0.41309700  0.43964908     1.02770
O56         O  0.06307801  0.37490124  0.44487242    -0.77700
O57         O  0.05592368  0.30213461  0.46369449    -0.77890
C58         C  0.08069428  0.30040582  0.43800177     1.02720
O59         O  0.10110148  0.30125567  0.03180799    -0.85220
O60         O  0.17169050  0.37384118  0.05445975    -0.82280
C61         C  0.19658757  0.41191346  0.06097948     0.98260
O62         O  0.19685738  0.43793474  0.03543374    -0.82310
O63         O  0.12534126  0.43378582  0.05596671    -0.84910
C64         C  0.08733644  0.41956489  0.06104517     1.02740
O65         O  0.06070089  0.39288397  0.03468757    -0.77730
O66         O  0.06214884  0.32370811  0.05417227    -0.77880
C67         C  0.07542068  0.29996462  0.05852746     1.02700
Cr68       Cr  0.14493622  0.35035176  0.49855036     1.93740
Cr69       Cr  0.14866986  0.43240938  0.00068792     1.93210
Cr70       Cr  0.06443581  0.35037994  0.99943363     1.39100
O71         O  0.11932689  0.37769762  0.99934773    -1.22970
C72         C  0.03233174  0.46796267  0.28873656     0.03260
C73         C  0.04427014  0.45934686  0.24949450    -0.12890
C74         C  0.03483369  0.47046220  0.21005146     0.00760
C75         C  0.01348383  0.49110898  0.21009288    -0.11420
C76         C  0.50121785  0.99969988  0.24910805     0.03270
C77         C  0.01045073  0.48803890  0.28829913    -0.10840
H78         H  0.06098424  0.44358686  0.24964265     0.08850
H79         H  0.50688218  0.00104873  0.18012496     0.06370
H80         H  0.50006438  0.99414123  0.31812731     0.06220
C81         C  0.30390069  0.46962472  0.29261183     0.03260
C82         C  0.34731989  0.98916921  0.29188869    -0.12890
C83         C  0.36773704  0.99616843  0.25254062     0.00760
C84         C  0.34463894  0.98290265  0.21383731    -0.11420
C85         C  0.30110315  0.46250522  0.21432323     0.03250
C86         C  0.28113027  0.45648848  0.25374257    -0.10840
H87         H  0.36531435  0.99996549  0.32164199     0.08850
H88         H  0.36054901  0.98854698  0.18349411     0.06370
H89         H  0.24760989  0.44162540  0.25419655     0.06220
C90         C  0.03088806  0.19659043  0.28675720     0.03260
C91         C  0.03974055  0.21735743  0.24751356    -0.12890
C92         C  0.03074599  0.19571708  0.20823676     0.00760
C93         C  0.51277525  0.15271568  0.20853710    -0.11420
C94         C  0.50360861  0.13168339  0.24777235     0.03250
C95         C  0.51312829  0.15370455  0.28679705    -0.10840
H96         H  0.05397969  0.25063603  0.24756543     0.08850
H97         H  0.50435949  0.13539344  0.17848683     0.06370
H98         H  0.50549415  0.13729538  0.31703277     0.06220
C99         C  0.43642037  0.06335723  0.25045212     0.02420
C100        C  0.41370498  0.01964741  0.25163401     0.02420
C101        C  0.43494043  0.49863940  0.25099171     0.02420
C102        C  0.47875431  0.02145681  0.24904324     0.02420
C103        C  0.00135625  0.06500098  0.24746369     0.02420
C104        C  0.48019136  0.08596175  0.24810585     0.02420
C105        C  0.03869597  0.21855057  0.16743672    -0.05340
C106        C  0.02431232  0.24535326  0.16276455    -0.32770
C107        C  0.03520572  0.27126627  0.12725106     0.36480
C108        C  0.06080986  0.27053605  0.09498747    -0.05690
C109        C  0.07379142  0.24235310  0.09888191    -0.32660
C110        C  0.06273954  0.21634565  0.13462815     0.36390
H111        H  0.00521971  0.24692044  0.18744015     0.16760
O112        O  0.02109033  0.29762677  0.12500322    -0.60160
H113        H  0.09336943  0.24103697  0.07466567     0.16780
O114        O  0.07787236  0.19094954  0.13857306    -0.60260
H115        H  0.05976757  0.16675034  0.11959341     0.43770
H116        H  0.04167806  0.32258608  0.14177557     0.43730
C117        C  0.04038589  0.22011900  0.32754947    -0.05340
C118        C  0.06907895  0.22081345  0.35681637    -0.32770
C119        C  0.08166574  0.24613747  0.39361159     0.36480
C120        C  0.06454758  0.27026510  0.40213864    -0.05690
C121        C  0.03401449  0.26767889  0.37421415    -0.32660
C122        C  0.02271079  0.24367576  0.33645280     0.36390
H123        H  0.08281775  0.20280887  0.35028630     0.16760
O124        O  0.11116732  0.24760240  0.42072896    -0.60160
H125        H  0.02022917  0.28564902  0.38072511     0.16780
O126        O  0.99393105  0.24286742  0.30869895    -0.60260
H127        H  0.00927079  0.26911632  0.29256472     0.43770
H128        H  0.09523871  0.22660536  0.44301336     0.43730
C129        C  0.28143371  0.46248377  0.33347114    -0.05340
C130        C  0.25322254  0.47525524  0.33729992    -0.32770
C131        C  0.22665758  0.46329982  0.37241736     0.36480
C132        C  0.22768376  0.43761427  0.40453842    -0.05690
C133        C  0.25758175  0.42678290  0.40170503    -0.32660
C134        C  0.28467790  0.43957693  0.36686681     0.36390
H135        H  0.25098524  0.49369323  0.31225214     0.16760
O136        O  0.19928188  0.47627211  0.37432446    -0.60160
H137        H  0.25960937  0.40776115  0.42616573     0.16780
O138        O  0.31250327  0.42736755  0.36443306    -0.60260
H139        H  0.33618054  0.44689633  0.38343148     0.43770
H140        H  0.17459618  0.45560755  0.35716349     0.43730
C141        C  0.22524556  0.42523732  0.09883541    -0.05340
C142        C  0.21719803  0.39635593  0.13134835    -0.32770
C143        C  0.24214133  0.40783593  0.16858220     0.36480
C144        C  0.27616378  0.44868679  0.17380926    -0.05690
C145        C  0.28499130  0.47716756  0.14099553    -0.32660
C146        C  0.26004818  0.46589328  0.10368660     0.36390
H147        H  0.19095748  0.36474432  0.12840322     0.16760
O148        O  0.23362219  0.37870671  0.19930291    -0.60160
H149        H  0.31069982  0.00853403  0.14507620     0.16780
O150        O  0.26977251  0.49498172  0.07261088    -0.60260
H151        H  0.28878963  0.99254352  0.05294256     0.43770
H152        H  0.20834053  0.37383406  0.21391077     0.43730
C153        C  0.06604192  0.42720275  0.40213378    -0.05340
C154        C  0.07211652  0.46687037  0.40168606    -0.32770
C155        C  0.05968581  0.48024452  0.36580808     0.36480
C156        C  0.04178959  0.45409169  0.32936110    -0.05690
C157        C  0.03523700  0.41438112  0.33033532    -0.32660
C158        C  0.04717507  0.40092434  0.36590201     0.36390
H159        H  0.08655459  0.48757894  0.42910732     0.16760
O160        O  0.06723015  0.51957831  0.36579016    -0.60160
H161        H  0.02134956  0.39366130  0.30282679     0.16780
O162        O  0.04108496  0.36218286  0.36422293    -0.60260
H163        H  0.06681933  0.36614537  0.35165029     0.43770
H164        H  0.04591034  0.01859607  0.38474500     0.43730
C165        C  0.04850487  0.46072889  0.16961461    -0.05340
C166        C  0.08875285  0.46801953  0.16825204    -0.32770
C167        C  0.10194571  0.45572918  0.13287202     0.36480
C168        C  0.07443750  0.43484719  0.09779118    -0.05690
C169        C  0.03446408  0.42855094  0.09844309    -0.32660
C170        C  0.02163147  0.44191636  0.13371255     0.36390
H171        H  0.11025209  0.48324815  0.19508272     0.16760
O172        O  0.14127253  0.46263672  0.13404999    -0.60160
H173        H  0.01298313  0.41306184  0.07167608     0.16780
O174        O  0.48208901  0.43437673  0.13374046    -0.60260
H175        H  0.48275253  0.45506895  0.11401242     0.43770
H176        H  0.15979242  0.49157780  0.12448324     0.43730
C177        C  0.18805552  0.15350158  0.09669556    -0.05340
C178        C  0.16788785  0.11271266  0.11173047    -0.32770
C179        C  0.14138766  0.10058342  0.14700730     0.36480
C180        C  0.13570218  0.12954927  0.16856437    -0.05690
C181        C  0.15534280  0.17013600  0.15344200    -0.32660
C182        C  0.18092137  0.18209066  0.11735697     0.36390
H183        H  0.17265550  0.09019263  0.09606934     0.16760
O184        O  0.12209225  0.06065224  0.16104753    -0.60160
H185        H  0.15145952  0.19277637  0.17017939     0.16780
O186        O  0.20088079  0.22243137  0.10426179    -0.60260
H187        H  0.18033032  0.22403474  0.08583463     0.43770
H188        H  0.09420714  0.04630606  0.14698206     0.43730
C189        C  0.13556734  0.12655540  0.32835657    -0.05340
C190        C  0.14181738  0.16044294  0.35252598    -0.32770
C191        C  0.16674376  0.17325212  0.38975502     0.36480
C192        C  0.18554709  0.15175311  0.40351248    -0.05690
C193        C  0.17762892  0.11654644  0.38034467    -0.32660
C194        C  0.15332415  0.10430683  0.34248999     0.36390
H195        H  0.12838716  0.17778502  0.34167141     0.16760
O196        O  0.17315927  0.20730435  0.41204685    -0.60160
H197        H  0.19182151  0.09967875  0.39048866     0.16780
O198        O  0.14717281  0.07073886  0.31941871    -0.60260
H199        H  0.17090169  0.08195007  0.29946127     0.43770
H200        H  0.15150301  0.19616845  0.43445949     0.43730
C201        C  0.37800695  0.36385066  0.32813924    -0.05340
C202        C  0.34961231  0.36318507  0.35689427    -0.32770
C203        C  0.33656417  0.33760798  0.39298012     0.36480
C204        C  0.35181473  0.31154063  0.40070361    -0.05690
C205        C  0.38103339  0.31292643  0.37212982    -0.32660
C206        C  0.39407516  0.33875368  0.33619679     0.36390
H207        H  0.33622778  0.38135026  0.35021327     0.16760
O208        O  0.30764065  0.33723550  0.41932977    -0.60160
H209        H  0.39349783  0.29350689  0.37718251     0.16780
O210        O  0.42191595  0.33865201  0.30858156    -0.60260
H211        H  0.44927469  0.35555655  0.32330689     0.43770
H212        H  0.32394448  0.36032386  0.44014757     0.43730
C213        C  0.37582458  0.36639786  0.16839529    -0.05340
C214        C  0.34094176  0.35945609  0.14498926    -0.32770
C215        C  0.32704513  0.33374173  0.10843760     0.36480
C216        C  0.34909924  0.31579675  0.09399179    -0.05690
C217        C  0.38520987  0.32443382  0.11640645    -0.32660
C218        C  0.39806927  0.34880802  0.15398115     0.36390
H219        H  0.32351498  0.37272546  0.15605746     0.16760
O220        O  0.29212849  0.32665693  0.08677564    -0.60160
H221        H  0.40235040  0.31068093  0.10595051     0.16780
O222        O  0.43230895  0.35523398  0.17653186    -0.60260
H223        H  0.42180214  0.33094352  0.19553079     0.43770
H224        H  0.26836917  0.30607561  0.10423426     0.43730
C225        C  0.37789376  0.13667507  0.17223440    -0.05340
C226        C  0.38033845  0.17472476  0.17287835    -0.32770
C227        C  0.36784373  0.18792206  0.13719215     0.36480
C228        C  0.35222311  0.16287939  0.09973650    -0.05690
C229        C  0.35149829  0.12585018  0.09819517    -0.32660
C230        C  0.36521182  0.11325327  0.13349675     0.36390
H231        H  0.39152596  0.19424492  0.20147006     0.16760
O232        O  0.37006590  0.22491694  0.13980762    -0.60160
H233        H  0.34058640  0.10667525  0.06933384     0.16780
O234        O  0.36461875  0.07723769  0.13007227    -0.60260
H235        H  0.38796942  0.08356723  0.11090369     0.43770
H236        H  0.34271554  0.21795920  0.15083823     0.43730
C237        C  0.36675588  0.12220764  0.33227971    -0.05340
C238        C  0.32433844  0.10506839  0.33922193    -0.32770
C239        C  0.31084190  0.11619966  0.37554473     0.36480
C240        C  0.34016372  0.14617144  0.40520831    -0.05690
C241        C  0.38267985  0.16194592  0.39892263    -0.32660
C242        C  0.39593038  0.14968553  0.36314185     0.36390
H243        H  0.30156218  0.08338284  0.31594302     0.16760
O244        O  0.26891143  0.09867797  0.38060315    -0.60160
H245        H  0.40587537  0.18448124  0.42129422     0.16780
O246        O  0.43762259  0.16656724  0.35727837    -0.60260
H247        H  0.44448975  0.14869153  0.37362629     0.43770
H248        H  0.25933927  0.07249039  0.39608933     0.43730
C249        C  0.38023558  0.11371866  0.79117166     0.03260
C250        C  0.40134889  0.09291728  0.79042753    -0.12890
C251        C  0.41441052  0.08568208  0.75122379     0.00760
C252        C  0.40779459  0.10067057  0.71281513    -0.11420
C253        C  0.38619023  0.12119841  0.71283133     0.03250
C254        C  0.37206216  0.12700496  0.75239165    -0.10840
H255        H  0.40747837  0.08223706  0.82019080     0.08850
H256        H  0.42023006  0.09675752  0.68329996     0.06370
H257        H  0.35481635  0.14220707  0.75327283     0.06220
C258        C  0.38767716  0.38797941  0.78802144     0.03260
C259        C  0.37929790  0.36749202  0.74817479    -0.12890
C260        C  0.38651983  0.38909183  0.70969532     0.00760
C261        C  0.40272048  0.43169172  0.71087876    -0.11420
C262        C  0.41195348  0.45278355  0.75047728     0.03250
C263        C  0.40377226  0.43076923  0.78908171    -0.10840
H264        H  0.36609973  0.33437663  0.74706473     0.08850
H265        H  0.40921761  0.44861433  0.68106773     0.06370
H266        H  0.41113280  0.44708977  0.81969836     0.06220
O267        O  0.21950247  0.19186299  0.53336094    -0.85220
O268        O  0.29423289  0.26165993  0.55319102    -0.82260
C269        C  0.33292018  0.28564189  0.55794399     0.98240
O270        O  0.35764163  0.28382811  0.53223662    -0.82300
O271        O  0.35278404  0.21302211  0.55506904    -0.84940
C272        C  0.33688263  0.17521386  0.56238414     1.02770
O273        O  0.30846320  0.14802193  0.53772879    -0.77700
O274        O  0.23947942  0.15098771  0.55666397    -0.77890
C275        C  0.21728024  0.16618715  0.56052823     1.02720
O276        O  0.24010921  0.20641606  0.94392663    -0.85220
O277        O  0.31110920  0.28087600  0.96357572    -0.82280
C278        C  0.33700625  0.28217939  0.93728844     0.98260
O279        O  0.35074551  0.25886953  0.94249622    -0.82310
O280        O  0.35370797  0.19112852  0.96582129    -0.84910
C281        C  0.32693653  0.16223801  0.94131513     1.02740
O282        O  0.28883461  0.14705867  0.94732079    -0.77730
O283        O  0.21725744  0.14332024  0.96600036    -0.77880
C284        C  0.21583647  0.16786673  0.93966207     1.02700
Cr285      Cr  0.26825169  0.23312829  0.49855378     1.93740
Cr286      Cr  0.34952936  0.23451465  0.99884915     1.93210
Cr287      Cr  0.26573117  0.15151345  0.50188555     1.39100
O288        O  0.29446782  0.20629064  0.99979315    -1.22970
C289        C  0.11241919  0.11634135  0.78721521     0.03260
C290        C  0.13391861  0.12692154  0.74833990    -0.12890
C291        C  0.11236050  0.11857739  0.70898268     0.00760
C292        C  0.06894376  0.09910175  0.70854787    -0.11420
C293        C  0.04732647  0.08839547  0.74747713     0.03250
C294        C  0.06916665  0.09739480  0.78672939    -0.10840
H295        H  0.16747090  0.14184754  0.74872163     0.08850
H296        H  0.05202708  0.09180053  0.67816785     0.06370
H297        H  0.05242396  0.08896876  0.81677019     0.06220
O298        O  0.11943168  0.32406549  0.94289874    -0.85220
O299        O  0.19461173  0.39374047  0.96514717    -0.82260
C300        C  0.19730857  0.42127641  0.94010437     0.98240
O301        O  0.17434002  0.43525746  0.94549629    -0.82300
O302        O  0.10684125  0.43874160  0.96625221    -0.84940
C303        C  0.07948521  0.41309235  0.93964908     1.02770
O304        O  0.06307632  0.37489648  0.94487174    -0.77700
O305        O  0.05592151  0.30212951  0.96369369    -0.77890
C306        C  0.08069234  0.30040084  0.93800118     1.02720
O307        O  0.10110403  0.30126118  0.53180789    -0.85220
O308        O  0.17169307  0.37384691  0.55445932    -0.82280
C309        C  0.19658995  0.41191919  0.56097933     0.98260
O310        O  0.19685965  0.43794056  0.53543376    -0.82310
O311        O  0.12534360  0.43379166  0.55596654    -0.84910
C312        C  0.08733876  0.41957032  0.56104543     1.02740
O313        O  0.06070315  0.39288924  0.53468803    -0.77730
O314        O  0.06215168  0.32371369  0.55417294    -0.77880
C315        C  0.07542313  0.29996981  0.55852744     1.02700
Cr316      Cr  0.14493390  0.35034618  0.99855057     1.93740
Cr317      Cr  0.14867204  0.43241495  0.50068771     1.93210
Cr318      Cr  0.06443809  0.35038519  0.49943426     1.39100
O319        O  0.11932917  0.37770313  0.49934779    -1.22970
C320        C  0.03233206  0.46796227  0.78873855     0.03260
C321        C  0.04427121  0.45934777  0.74949624    -0.12890
C322        C  0.03483523  0.47046419  0.71005365     0.00760
C323        C  0.01348525  0.49111081  0.71009577    -0.11420
C324        C  0.50121855  0.99970050  0.74911119     0.03270
C325        C  0.01045080  0.48803827  0.78830187    -0.10840
H326        H  0.06098540  0.44358786  0.74964385     0.08850
H327        H  0.50688412  0.00105143  0.68012817     0.06370
H328        H  0.50006412  0.99413987  0.81813031     0.06220
C329        C  0.30390035  0.46962269  0.79261314     0.03260
C330        C  0.34731960  0.98916696  0.79189040    -0.12890
C331        C  0.36773721  0.99616817  0.75254231     0.00760
C332        C  0.34463961  0.98290478  0.71383863    -0.11420
C333        C  0.30110382  0.46250738  0.71432418     0.03250
C334        C  0.28113042  0.45648836  0.75374350    -0.10840
H335        H  0.36531375  0.99996190  0.82164397     0.08850
H336        H  0.36055000  0.98855080  0.68349541     0.06370
H337        H  0.24760999  0.44162504  0.75419711     0.06220
C338        C  0.03088738  0.19658958  0.78675354     0.03260
C339        C  0.03973966  0.21735723  0.74751036    -0.12890
C340        C  0.03074512  0.19571754  0.70823311     0.00760
C341        C  0.51277447  0.15271610  0.70853259    -0.11420
C342        C  0.50360801  0.13168323  0.74776749     0.03250
C343        C  0.51312782  0.15370380  0.78679255    -0.10840
H344        H  0.05397870  0.25063583  0.74756295     0.08850
H345        H  0.50435878  0.13539435  0.67848202     0.06370
H346        H  0.50549388  0.13729418  0.81702800     0.06220
C347        C  0.43642001  0.06335696  0.75044842     0.02420
C348        C  0.41370513  0.01964735  0.75163587     0.02420
C349        C  0.43494088  0.49863959  0.75099784     0.02420
C350        C  0.47875471  0.02145718  0.74904659     0.02420
C351        C  0.00135616  0.06500111  0.74746160     0.02420
C352        C  0.48019093  0.08596160  0.74810091     0.02420
C353        C  0.03869550  0.21855196  0.66743364    -0.05340
C354        C  0.02431230  0.24535510  0.66276239    -0.32770
C355        C  0.03520672  0.27126944  0.62724992     0.36480
C356        C  0.06081149  0.27054017  0.59498648    -0.05690
C357        C  0.07379250  0.24235671  0.59887988    -0.32660
C358        C  0.06273952  0.21634788  0.63462505     0.36390
H359        H  0.00521931  0.24692164  0.68743800     0.16760
O360        O  0.02109167  0.29763026  0.62500292    -0.60160
H361        H  0.09337086  0.24104117  0.57466365     0.16780
O362        O  0.07787169  0.19095117  0.63856894    -0.60260
H363        H  0.05976705  0.16675275  0.61958831     0.43770
H364        H  0.04167914  0.32258892  0.64177628     0.43730
C365        C  0.04038517  0.22011728  0.82754636    -0.05340
C366        C  0.06907868  0.22081160  0.85681249    -0.32770
C367        C  0.08166496  0.24613439  0.89360861     0.36480
C368        C  0.06454597  0.27026101  0.90213724    -0.05690
C369        C  0.03401259  0.26767501  0.87421332    -0.32660
C370        C  0.02270926  0.24367300  0.83645120     0.36390
H371        H  0.08281819  0.20280788  0.85028115     0.16760
O372        O  0.11116691  0.24759917  0.92072528    -0.60160
H373        H  0.02022681  0.28564454  0.88072534     0.16780
O374        O  0.99392916  0.24286480  0.80869801    -0.60260
H375        H  0.00926861  0.26911392  0.79256413     0.43770
H376        H  0.09523863  0.22660102  0.94300883     0.43730
C377        C  0.28143279  0.46248054  0.83347229    -0.05340
C378        C  0.25322107  0.47525133  0.83730112    -0.32770
C379        C  0.22665555  0.46329490  0.87241811     0.36480
C380        C  0.22768184  0.43760921  0.90453891    -0.05690
C381        C  0.25758031  0.42677845  0.90170554    -0.32660
C382        C  0.28467694  0.43957337  0.86686763     0.36390
H383        H  0.25098376  0.49368958  0.81225365     0.16760
O384        O  0.19927919  0.47626639  0.87432500    -0.60160
H385        H  0.25960798  0.40775657  0.92616605     0.16780
O386        O  0.31250283  0.42736463  0.86443384    -0.60260
H387        H  0.33617958  0.44689308  0.88343300     0.43770
H388        H  0.17459382  0.45560164  0.85716376     0.43730
C389        C  0.22524772  0.42524275  0.59883553    -0.05340
C390        C  0.21720187  0.39635986  0.63134625    -0.32770
C391        C  0.24214469  0.40783902  0.66858032     0.36480
C392        C  0.27616496  0.44869061  0.67380999    -0.05690
C393        C  0.28499063  0.47717331  0.64099888    -0.32660
C394        C  0.26004812  0.46589973  0.60368947     0.36390
H395        H  0.19096301  0.36474756  0.62839922     0.16760
O396        O  0.23362714  0.37870840  0.69929881    -0.60160
H397        H  0.31069709  0.00854059  0.64508225     0.16780
O398        O  0.26977067  0.49498982  0.57261615    -0.60260
H399        H  0.28879024  0.99255577  0.55294773     0.43770
H400        H  0.20834537  0.37383400  0.71390793     0.43730
C401        C  0.06604058  0.42719897  0.90213424    -0.05340
C402        C  0.07211607  0.46686698  0.90168740    -0.32770
C403        C  0.05968600  0.48024225  0.86580987     0.36480
C404        C  0.04178939  0.45409012  0.82936252    -0.05690
C405        C  0.03523602  0.41437922  0.83033573    -0.32660
C406        C  0.04717349  0.40092130  0.86590201     0.36390
H407        H  0.08655443  0.48757505  0.92910897     0.16760
O408        O  0.06723148  0.51957648  0.86579267    -0.60160
H409        H  0.02134832  0.39366001  0.80282676     0.16780
O410        O  0.04108250  0.36217947  0.86422211    -0.60260
H411        H  0.06681662  0.36614160  0.85164922     0.43770
H412        H  0.04591211  0.01859483  0.88474715     0.43730
C413        C  0.04850667  0.46073189  0.66961642    -0.05340
C414        C  0.08875487  0.46802314  0.66825341    -0.32770
C415        C  0.10194804  0.45573389  0.63287274     0.36480
C416        C  0.07443978  0.43485210  0.59779186    -0.05690
C417        C  0.03446606  0.42855506  0.59844437    -0.32660
C418        C  0.02163320  0.44191954  0.63371439     0.36390
H419        H  0.11025404  0.48325145  0.69508422     0.16760
O420        O  0.14127518  0.46264226  0.63405007    -0.60160
H421        H  0.01298502  0.41306598  0.57167740     0.16780
O422        O  0.48209036  0.43437893  0.63374297    -0.60260
H423        H  0.48275320  0.45507119  0.61401554     0.43770
H424        H  0.15979456  0.49158353  0.62448365     0.43730
C425        C  0.18805823  0.15350971  0.59669454    -0.05340
C426        C  0.16789841  0.11272250  0.61173342    -0.32770
C427        C  0.14139754  0.10059082  0.64700974     0.36480
C428        C  0.13570269  0.12955247  0.66856214    -0.05690
C429        C  0.15533494  0.17013730  0.65343568    -0.32660
C430        C  0.18091469  0.18209434  0.61735128     0.36390
H431        H  0.17267299  0.09020559  0.59607600     0.16760
O432        O  0.12211026  0.06066139  0.66105379    -0.60160
H433        H  0.15144482  0.19277466  0.67016978     0.16780
O434        O  0.20086613  0.22243355  0.60425242    -0.60260
H435        H  0.18031230  0.22402978  0.58582366     0.43770
H436        H  0.09422351  0.04630976  0.64699168     0.43730
C437        C  0.13556556  0.12654724  0.82835420    -0.05340
C438        C  0.14181149  0.16043117  0.85252744    -0.32770
C439        C  0.16673649  0.17323858  0.88975730     0.36480
C440        C  0.18554249  0.15174135  0.90351184    -0.05690
C441        C  0.17762797  0.11653766  0.88034057    -0.32660
C442        C  0.15332447  0.10429982  0.84248500     0.36390
H443        H  0.12837908  0.17777195  0.84167529     0.16760
O444        O  0.17314824  0.20728758  0.91205283    -0.60160
H445        H  0.19182244  0.09967121  0.89048261     0.16780
O446        O  0.14717587  0.07073442  0.81941072    -0.60260
H447        H  0.17090570  0.08194834  0.79945426     0.43770
H448        H  0.15149080  0.19614806  0.93446431     0.43730
C449        C  0.37800870  0.36384988  0.82814601    -0.05340
C450        C  0.34961070  0.36318048  0.85689901    -0.32770
C451        C  0.33656018  0.33760037  0.89298258     0.36480
C452        C  0.35181156  0.31153363  0.90070572    -0.05690
C453        C  0.38103357  0.31292329  0.87213415    -0.32660
C454        C  0.39407794  0.33875376  0.83620349     0.36390
H455        H  0.33622509  0.38134466  0.85021782     0.16760
O456        O  0.30763334  0.33722413  0.91933001    -0.60160
H457        H  0.39349875  0.29350437  0.87718672     0.16780
O458        O  0.42192167  0.33865558  0.80858985    -0.60260
H459        H  0.44927736  0.35554738  0.82332441     0.43770
H460        H  0.32393448  0.36031091  0.94015024     0.43730
C461        C  0.37582681  0.36639961  0.66840226    -0.05340
C462        C  0.34094480  0.35945959  0.64499602    -0.32770
C463        C  0.32704951  0.33374808  0.60844235     0.36480
C464        C  0.34910424  0.31580436  0.59399474    -0.05690
C465        C  0.38521411  0.32443971  0.61640981    -0.32660
C466        C  0.39807216  0.34881105  0.65398649     0.36390
H467        H  0.32351776  0.37272831  0.65606537     0.16760
O468        O  0.29213341  0.32666471  0.58678036    -0.60160
H469        H  0.40235501  0.31068763  0.60595252     0.16780
O470        O  0.43231140  0.35523588  0.67653720    -0.60260
H471        H  0.42180421  0.33094434  0.69553461     0.43770
H472        H  0.26837355  0.30608008  0.60423614     0.43730
C473        C  0.37789788  0.13667960  0.67223082    -0.05340
C474        C  0.38034557  0.17473074  0.67287592    -0.32770
C475        C  0.36785175  0.18792998  0.63719059     0.36480
C476        C  0.35222872  0.16288766  0.59973486    -0.05690
C477        C  0.35150157  0.12585722  0.59819222    -0.32660
C478        C  0.36521436  0.11325843  0.63349281     0.36390
H479        H  0.39153441  0.19425031  0.70146804     0.16760
O480        O  0.37007695  0.22492628  0.63980712    -0.60160
H481        H  0.34058806  0.10668258  0.56933072     0.16780
O482        O  0.36461870  0.07724154  0.63006720    -0.60260
H483        H  0.38796931  0.08357026  0.61089892     0.43770
H484        H  0.34272782  0.21797054  0.65083956     0.43730
C485        C  0.36675360  0.12220485  0.83227519    -0.05340
C486        C  0.32433598  0.10506464  0.83921713    -0.32770
C487        C  0.31083868  0.11619347  0.87554119     0.36480
C488        C  0.34015994  0.14616378  0.90520624    -0.05690
C489        C  0.38267625  0.16193926  0.89892057    -0.32660
C490        C  0.39592753  0.14968126  0.86313857     0.36390
H491        H  0.30156018  0.08338009  0.81593726     0.16760
O492        O  0.26890808  0.09867091  0.88059949    -0.60160
H493        H  0.40587136  0.18447354  0.92129321     0.16780
O494        O  0.43761990  0.16656376  0.85727533    -0.60260
H495        H  0.44448711  0.14868732  0.87362172     0.43770
H496        H  0.25933608  0.07248242  0.89608375     0.43730
C497        C  0.38022875  0.61372217  0.29117711     0.03260
C498        C  0.40134272  0.59292143  0.29043300    -0.12890
C499        C  0.41440316  0.58568531  0.25122896     0.00760
C500        C  0.40778629  0.60067294  0.21282038    -0.11420
C501        C  0.38618051  0.62119928  0.21283646     0.03250
C502        C  0.37205330  0.62700655  0.25239697    -0.10840
H503        H  0.40747297  0.58224185  0.32019627     0.08850
H504        H  0.42022162  0.59675969  0.18330525     0.06370
H505        H  0.35480627  0.64220738  0.25327824     0.06220
C506        C  0.38768308  0.88797857  0.28801257     0.03260
C507        C  0.37930320  0.86749105  0.24816605    -0.12890
C508        C  0.38652780  0.88909160  0.20968659     0.00760
C509        C  0.40273373  0.93169269  0.21087028    -0.11420
C510        C  0.41196778  0.95278436  0.25046920     0.03250
C511        C  0.40378281  0.93076910  0.28907324    -0.10840
H512        H  0.36610164  0.83437506  0.24705619     0.08850
H513        H  0.40923218  0.94861575  0.18105942     0.06370
H514        H  0.41114273  0.94708915  0.31969014     0.06220
O515        O  0.21948900  0.69185415  0.03336155    -0.85220
O516        O  0.29422048  0.76165212  0.05318822    -0.82260
C517        C  0.33290808  0.78563331  0.05794009     0.98240
O518        O  0.35762797  0.78381786  0.03223207    -0.82300
O519        O  0.35276763  0.71301190  0.05506930    -0.84940
C520        C  0.33686628  0.67520392  0.06238568     1.02770
O521        O  0.30844778  0.64801119  0.03773012    -0.77700
O522        O  0.23946326  0.65097612  0.05666340    -0.77890
C523        C  0.21726561  0.66617721  0.06052816     1.02720
O524        O  0.24010368  0.70642663  0.44392680    -0.85220
O525        O  0.31110675  0.78088517  0.46357223    -0.82280
C526        C  0.33700301  0.78218580  0.43728546     0.98260
O527        O  0.35074138  0.75887551  0.44249566    -0.82310
O528        O  0.35370149  0.69113449  0.46582452    -0.84910
C529        C  0.32693008  0.66224502  0.44131754     1.02740
O530        O  0.28882828  0.64706786  0.44732147    -0.77730
O531        O  0.21725161  0.64333099  0.46600099    -0.77880
C532        C  0.21583056  0.66787729  0.43966252     1.02700
Cr533      Cr  0.26823732  0.73311754  0.99855190     1.93740
Cr534      Cr  0.34952439  0.73452261  0.49884959     1.93210
Cr535      Cr  0.26571573  0.65150167  0.00188560     1.39100
O536        O  0.29446285  0.70630051  0.49979325    -1.22970
C537        C  0.11240840  0.61634150  0.28721749     0.03260
C538        C  0.13390735  0.62691967  0.24834193    -0.12890
C539        C  0.11234860  0.61857115  0.20898457     0.00760
C540        C  0.06893171  0.59909378  0.20854993    -0.11420
C541        C  0.04731477  0.58839055  0.24747932     0.03250
C542        C  0.06915552  0.59739342  0.28673178    -0.10840
H543        H  0.16745982  0.64184723  0.24872355     0.08850
H544        H  0.05201470  0.59179030  0.17816991     0.06370
H545        H  0.05241319  0.58896964  0.31677275     0.06220
O546        O  0.11944220  0.82406968  0.44289944    -0.85220
O547        O  0.19462466  0.89374292  0.46514657    -0.82260
C548        C  0.19732295  0.92127991  0.44010439     0.98240
O549        O  0.17435631  0.93526303  0.44549715    -0.82300
O550        O  0.10685949  0.93875033  0.46625294    -0.84940
C551        C  0.07950269  0.91310128  0.43965016     1.02770
O552        O  0.06309230  0.87490532  0.44487354    -0.77700
O553        O  0.05593340  0.80213679  0.46369654    -0.77890
C554        C  0.08070254  0.80040629  0.43800320     1.02720
O555        O  0.10111043  0.80125570  0.03180956    -0.85220
O556        O  0.17170211  0.87383918  0.05445976    -0.82280
C557        C  0.19660050  0.91191119  0.06097962     0.98260
O558        O  0.19687129  0.93793335  0.03543446    -0.82310
O559        O  0.12535698  0.93378819  0.05596816    -0.84910
C560        C  0.08735249  0.91956919  0.06104633     1.02740
O561        O  0.06071647  0.89288936  0.03468832    -0.77730
O562        O  0.06216076  0.82371177  0.05417366    -0.77880
C563        C  0.07543061  0.79996666  0.05852913     1.02700
Cr564      Cr  0.14494641  0.85035040  0.49855086     1.93740
Cr565      Cr  0.14868468  0.93241049  0.00068905     1.93210
Cr566      Cr  0.06444866  0.85038353  0.99943491     1.39100
O567        O  0.11933958  0.87769873  0.99934868    -1.22970
C568        C  0.03234924  0.96796900  0.28873792     0.03260
C569        C  0.04428815  0.95935352  0.24949602    -0.12890
C570        C  0.03485115  0.97046808  0.21005284     0.00760
C571        C  0.01350025  0.99111389  0.21009400    -0.11420
C572        C  0.50120209  0.49969539  0.24910709     0.03270
C573        C  0.01046726  0.98804428  0.28830029    -0.10840
H574        H  0.06100267  0.94359394  0.24964448     0.08850
H575        H  0.50686641  0.50104457  0.18012399     0.06370
H576        H  0.50004823  0.49413630  0.31812620     0.06220
C577        C  0.30391274  0.96962012  0.29261221     0.03260
C578        C  0.34730768  0.48917182  0.29188834    -0.12890
C579        C  0.36772480  0.49617105  0.25254018     0.00760
C580        C  0.34462656  0.48290704  0.21383679    -0.11420
C581        C  0.30111545  0.96249921  0.21432356     0.03250
C582        C  0.28114234  0.95648214  0.25374287    -0.10840
H583        H  0.36530201  0.49996632  0.32164184     0.08850
H584        H  0.36053635  0.48855106  0.18349347     0.06370
H585        H  0.24762186  0.94161809  0.25419674     0.06220
C586        C  0.03088644  0.69658996  0.28675881     0.03260
C587        C  0.03974196  0.71735782  0.24751549    -0.12890
C588        C  0.03074601  0.69571764  0.20823841     0.00760
C589        C  0.51277055  0.65271556  0.20853815    -0.11420
C590        C  0.50360084  0.63168250  0.24777312     0.03250
C591        C  0.51312201  0.65370342  0.28679811    -0.10840
H592        H  0.05398455  0.75063690  0.24756785     0.08850
H593        H  0.50435401  0.63539365  0.17848763     0.06370
H594        H  0.50548600  0.63729376  0.31703362     0.06220
C595        C  0.43641032  0.56335808  0.25045220     0.02420
C596        C  0.41369287  0.51964813  0.25163370     0.02420
C597        C  0.43495427  0.99864040  0.25099195     0.02420
C598        C  0.47874047  0.52145411  0.24904272     0.02420
C599        C  0.00134435  0.56499821  0.24746347     0.02420
C600        C  0.48018132  0.58596082  0.24810600     0.02420
C601        C  0.03869925  0.71855222  0.16743867    -0.05340
C602        C  0.02431944  0.74535800  0.16276630    -0.32770
C603        C  0.03521531  0.77127135  0.12725290     0.36480
C604        C  0.06081819  0.77053846  0.09498953    -0.05690
C605        C  0.07379635  0.74235284  0.09888438    -0.32660
C606        C  0.06274184  0.71634493  0.13463057     0.36390
H607        H  0.00522773  0.74692715  0.18744160     0.16760
O608        O  0.02110334  0.79763467  0.12500485    -0.60160
H609        H  0.09337341  0.74103470  0.07466838     0.16780
O610        O  0.07787093  0.69094568  0.13857577    -0.60260
H611        H  0.05976473  0.66674706  0.11959601     0.43770
H612        H  0.04169256  0.82259339  0.14177700     0.43730
C613        C  0.04038643  0.72011851  0.32755130    -0.05340
C614        C  0.06907947  0.72081126  0.35681688    -0.32770
C615        C  0.08166906  0.74613582  0.39361182     0.36480
C616        C  0.06455353  0.77026558  0.40214005    -0.05690
C617        C  0.03402028  0.76768099  0.37421699    -0.32660
C618        C  0.02271398  0.74367742  0.33645578     0.36390
H619        H  0.08281604  0.70280487  0.35028591     0.16760
O620        O  0.11117068  0.74759911  0.42072779    -0.60160
H621        H  0.02023691  0.78565274  0.38072890     0.16780
O622        O  0.99393476  0.74287125  0.30870290    -0.60260
H623        H  0.00927597  0.76911930  0.29256742     0.43770
H624        H  0.09524207  0.72660252  0.44301256     0.43730
C625        C  0.28144574  0.96248022  0.33347142    -0.05340
C626        C  0.25323136  0.97524797  0.33729726    -0.32770
C627        C  0.22666650  0.96329313  0.37241465     0.36480
C628        C  0.22769573  0.93761159  0.40453856    -0.05690
C629        C  0.25759706  0.92678440  0.40170837    -0.32660
C630        C  0.28469370  0.93957860  0.36687049     0.36390
H631        H  0.25099160  0.99368267  0.31224730     0.16760
O632        O  0.19928776  0.97626181  0.37431884    -0.60160
H633        H  0.25962741  0.90776640  0.42617174     0.16780
O634        O  0.31252390  0.92737499  0.36444105    -0.60260
H635        H  0.33619879  0.94690627  0.38344054     0.43770
H636        H  0.17460235  0.95559388  0.35715984     0.43730
C637        C  0.22525869  0.92523365  0.09883524    -0.05340
C638        C  0.21720949  0.89635197  0.13134841    -0.32770
C639        C  0.24215260  0.90783097  0.16858234     0.36480
C640        C  0.27617655  0.94868107  0.17380922    -0.05690
C641        C  0.28500624  0.97716175  0.14099473    -0.32660
C642        C  0.26006319  0.96588855  0.10368588     0.36390
H643        H  0.19096768  0.86474100  0.12840347     0.16760
O644        O  0.23363192  0.87870143  0.19930319    -0.60160
H645        H  0.31068302  0.50854068  0.14507769     0.16780
O646        O  0.26978943  0.99497701  0.07260966    -0.60260
H647        H  0.28877409  0.49255045  0.05294381     0.43770
H648        H  0.20834984  0.87382900  0.21390988     0.43730
C649        C  0.06605861  0.92720789  0.40213480    -0.05340
C650        C  0.07213457  0.96687609  0.40168697    -0.32770
C651        C  0.05970407  0.98025066  0.36580912     0.36480
C652        C  0.04180684  0.95409774  0.32936240    -0.05690
C653        C  0.03525295  0.91438667  0.33033668    -0.32660
C654        C  0.04719075  0.90092945  0.36590322     0.36390
H655        H  0.08657334  0.98758468  0.42910809     0.16760
O656        O  0.06724933  0.01958479  0.36579113    -0.60160
H657        H  0.02136439  0.89366665  0.30282841     0.16780
O658        O  0.04109917  0.86218736  0.36422423    -0.60260
H659        H  0.06683302  0.86614883  0.35165137     0.43770
H660        H  0.04589134  0.51858921  0.38474466     0.43730
C661        C  0.04852208  0.96073423  0.16961605    -0.05340
C662        C  0.08877010  0.96802487  0.16825312    -0.32770
C663        C  0.10196277  0.95573446  0.13287291     0.36480
C664        C  0.07445426  0.93485224  0.09779234    -0.05690
C665        C  0.03448080  0.92855587  0.09844471    -0.32660
C666        C  0.02164837  0.94192133  0.13371427     0.36390
H667        H  0.11026958  0.98325371  0.19508357     0.16760
O668        O  0.14128970  0.96264230  0.13405038    -0.60160
H669        H  0.01299953  0.91306645  0.07167800     0.16780
O670        O  0.48210570  0.93438112  0.13374265    -0.60260
H671        H  0.48276852  0.95507272  0.11401419     0.43770
H672        H  0.15980925  0.99158315  0.12448283     0.43730
C673        C  0.18804436  0.65350100  0.09669492    -0.05340
C674        C  0.16787517  0.61271105  0.11172722    -0.32770
C675        C  0.14137469  0.60058045  0.14700398     0.36480
C676        C  0.13569052  0.62954596  0.16856377    -0.05690
C677        C  0.15533254  0.67013371  0.15344392    -0.32660
C678        C  0.18091117  0.68208968  0.11735878     0.36390
H679        H  0.17264205  0.59019126  0.09606423     0.16760
O680        O  0.12207822  0.56064837  0.16104179    -0.60160
H681        H  0.15145034  0.69277383  0.17018339     0.16780
O682        O  0.20087167  0.72243116  0.10426597    -0.60260
H683        H  0.18032169  0.72403619  0.08583969     0.43770
H684        H  0.09419350  0.54630322  0.14697549     0.43730
C685        C  0.13555594  0.62655099  0.32835622    -0.05340
C686        C  0.14180862  0.66044108  0.35252269    -0.32770
C687        C  0.16673495  0.67325128  0.38975179     0.36480
C688        C  0.18553629  0.65175119  0.40351210    -0.05690
C689        C  0.17761588  0.61654232  0.38034697    -0.32660
C690        C  0.15331070  0.60430134  0.34249243     0.36390
H691        H  0.12838047  0.67778425  0.34166565     0.16760
O692        O  0.17315222  0.70730546  0.41204094    -0.60160
H693        H  0.19180694  0.59967374  0.39049298     0.16780
O694        O  0.14715725  0.57073119  0.31942388    -0.60260
H695        H  0.17088506  0.58194023  0.29946523     0.43770
H696        H  0.15149737  0.69617160  0.43445503     0.43730
C697        C  0.37800934  0.86384872  0.32813701    -0.05340
C698        C  0.34960485  0.86317625  0.35688275    -0.32770
C699        C  0.33655323  0.83759900  0.39296857     0.36480
C700        C  0.35180893  0.81153722  0.40070024    -0.05690
C701        C  0.38103584  0.81292855  0.37213445    -0.32660
C702        C  0.39408160  0.83875655  0.33620202     0.36390
H703        H  0.33621544  0.88133574  0.35019391     0.16760
O704        O  0.30762123  0.83722035  0.41930964    -0.60160
H705        H  0.39350419  0.79351318  0.37719331     0.16780
O706        O  0.42193061  0.83866050  0.30859480    -0.60260
H707        H  0.44928817  0.85558214  0.32331822     0.43770
H708        H  0.32391775  0.86031098  0.44012705     0.43730
C709        C  0.37582967  0.86639817  0.16839384    -0.05340
C710        C  0.34094330  0.85945525  0.14499400    -0.32770
C711        C  0.32704230  0.83374073  0.10844236     0.36480
C712        C  0.34909541  0.81579675  0.09399029    -0.05690
C713        C  0.38520907  0.82443455  0.11639920    -0.32660
C714        C  0.39807295  0.84880884  0.15397388     0.36390
H715        H  0.32351743  0.87272404  0.15606699     0.16760
O716        O  0.29212250  0.82665501  0.08678656    -0.60160
H717        H  0.40234882  0.81068221  0.10593873     0.16780
O718        O  0.43231523  0.85523484  0.17651917    -0.60260
H719        H  0.42181017  0.83094579  0.19551987     0.43770
H720        H  0.26836580  0.80607305  0.10424759     0.43730
C721        C  0.37788511  0.63667730  0.17223546    -0.05340
C722        C  0.38032850  0.67472635  0.17287932    -0.32770
C723        C  0.36783261  0.68792263  0.13719326     0.36480
C724        C  0.35221198  0.66287946  0.09973796    -0.05690
C725        C  0.35148835  0.62585087  0.09819672    -0.32660
C726        C  0.36520321  0.61325509  0.13349807     0.36390
H727        H  0.39151596  0.69424681  0.20147081     0.16760
O728        O  0.37005385  0.72491707  0.13980845    -0.60160
H729        H  0.34057662  0.60667573  0.06933554     0.16780
O730        O  0.36461175  0.57724032  0.13007357    -0.60260
H731        H  0.38796234  0.58357061  0.11090451     0.43770
H732        H  0.34270344  0.71795884  0.15083937     0.43730
C733        C  0.36674723  0.62220892  0.33228052    -0.05340
C734        C  0.32432949  0.60506696  0.33922365    -0.32770
C735        C  0.31083224  0.61619685  0.37554691     0.36480
C736        C  0.34015358  0.64616966  0.40520997    -0.05690
C737        C  0.38267011  0.66194685  0.39892330    -0.32660
C738        C  0.39592146  0.64968820  0.36314194     0.36390
H739        H  0.30155356  0.58338045  0.31594513     0.16760
O740        O  0.26890154  0.59867273  0.38060637    -0.60160
H741        H  0.40586533  0.68448328  0.42129435     0.16780
O742        O  0.43761402  0.66657311  0.35727705    -0.60260
H743        H  0.44448350  0.64869823  0.37362317     0.43770
H744        H  0.25933158  0.57248616  0.39609369     0.43730
C745        C  0.38022748  0.61372093  0.79117237     0.03260
C746        C  0.40134071  0.59291954  0.79042805    -0.12890
C747        C  0.41440255  0.58568480  0.75122426     0.00760
C748        C  0.40778725  0.60067403  0.71281586    -0.11420
C749        C  0.38618256  0.62120151  0.71283226     0.03250
C750        C  0.37205424  0.62700766  0.75239261    -0.10840
H751        H  0.40746962  0.58223862  0.82019115     0.08850
H752        H  0.42022288  0.59676123  0.68330069     0.06370
H753        H  0.35480811  0.64220942  0.75327401     0.06220
C754        C  0.38768614  0.88797898  0.78801998     0.03260
C755        C  0.37930659  0.86749182  0.74817324    -0.12890
C756        C  0.38653014  0.88909246  0.70969406     0.00760
C757        C  0.40273463  0.93169310  0.71087804    -0.11420
C758        C  0.41196873  0.95278466  0.75047683     0.03250
C759        C  0.40378483  0.93076945  0.78908095    -0.10840
H760        H  0.36610579  0.83437597  0.74706299     0.08850
H761        H  0.40923219  0.94861610  0.68106722     0.06370
H762        H  0.41114459  0.94708937  0.81969792     0.06220
O763        O  0.21949400  0.69186538  0.53336218    -0.85220
O764        O  0.29422594  0.76166232  0.55318906    -0.82260
C765        C  0.33291351  0.78564285  0.55794157     0.98240
O766        O  0.35763347  0.78382798  0.53223313    -0.82300
O767        O  0.35277269  0.71302159  0.55506991    -0.84940
C768        C  0.33687131  0.67521343  0.56238539     1.02770
O769        O  0.30845216  0.64802125  0.53772994    -0.77700
O770        O  0.23946839  0.65098744  0.55666372    -0.77890
C771        C  0.21727010  0.66618783  0.56052835     1.02720
O772        O  0.24009836  0.70641477  0.94392629    -0.85220
O773        O  0.31110078  0.78087416  0.96357145    -0.82280
C774        C  0.33699821  0.78217620  0.93728539     0.98260
O775        O  0.35073630  0.75886557  0.94249488    -0.82310
O776        O  0.35369690  0.69112471  0.96582399    -0.84910
C777        C  0.32692576  0.66223536  0.94131674     1.02740
O778        O  0.28882386  0.64705703  0.94732127    -0.77730
O779        O  0.21724682  0.64331917  0.96600046    -0.77880
C780        C  0.21582567  0.66786536  0.93966195     1.02700
Cr781      Cr  0.26824281  0.73312872  0.49855261     1.93740
Cr782      Cr  0.34951927  0.73451251  0.99884886     1.93210
Cr783      Cr  0.26572039  0.65151262  0.50188585     1.39100
O784        O  0.29445774  0.70628975  0.99979271    -1.22970
C785        C  0.11240737  0.61633554  0.78721488     0.03260
C786        C  0.13390674  0.62691602  0.74833950    -0.12890
C787        C  0.11234865  0.61857250  0.70898228     0.00760
C788        C  0.06893191  0.59909717  0.70854760    -0.11420
C789        C  0.04731459  0.58839068  0.74747689     0.03250
C790        C  0.06915481  0.59738924  0.78672911    -0.10840
H791        H  0.16745904  0.64184219  0.74872118     0.08850
H792        H  0.05201528  0.59179691  0.67816764     0.06370
H793        H  0.05241220  0.58896349  0.81676996     0.06220
O794        O  0.11944016  0.82406422  0.94289950    -0.85220
O795        O  0.19462244  0.89373732  0.96514679    -0.82260
C796        C  0.19732075  0.92127436  0.94010465     0.98240
O797        O  0.17435401  0.93525737  0.94549735    -0.82300
O798        O  0.10685745  0.93874510  0.96625333    -0.84940
C799        C  0.07950086  0.91309650  0.93965014     1.02770
O800        O  0.06309051  0.87490044  0.94487283    -0.77700
O801        O  0.05593118  0.80213159  0.96369571    -0.77890
C802        C  0.08070054  0.80040122  0.93800258     1.02720
O803        O  0.10111302  0.80126127  0.53180948    -0.85220
O804        O  0.17170474  0.87384494  0.55445936    -0.82280
C805        C  0.19660295  0.91191694  0.56097952     0.98260
O806        O  0.19687363  0.93793921  0.53543455    -0.82310
O807        O  0.12535939  0.93379409  0.55596806    -0.84910
C808        C  0.08735489  0.91957468  0.56104666     1.02740
O809        O  0.06071880  0.89289471  0.53468883    -0.77730
O810        O  0.06216364  0.82371740  0.55417435    -0.77880
C811        C  0.07543310  0.79997190  0.55852912     1.02700
Cr812      Cr  0.14494403  0.85034476  0.99855104     1.93740
Cr813      Cr  0.14868695  0.93241614  0.50068891     1.93210
Cr814      Cr  0.06445101  0.85038888  0.49943557     1.39100
O815        O  0.11934193  0.87770431  0.49934880    -1.22970
C816        C  0.03234952  0.96796862  0.78873997     0.03260
C817        C  0.04428915  0.95935437  0.74949785    -0.12890
C818        C  0.03485272  0.97047008  0.71005509     0.00760
C819        C  0.01350180  0.99111582  0.71009692    -0.11420
C820        C  0.50120265  0.49969582  0.74911022     0.03270
C821        C  0.01046741  0.98804379  0.78830305    -0.10840
H822        H  0.06100367  0.94359478  0.74964580     0.08850
H823        H  0.50686814  0.50104711  0.68012718     0.06370
H824        H  0.50004788  0.49413469  0.81812918     0.06220
C825        C  0.30391242  0.96961807  0.79261354     0.03260
C826        C  0.34730738  0.48916961  0.79189000    -0.12890
C827        C  0.36772492  0.49617080  0.75254181     0.00760
C828        C  0.34462716  0.48290919  0.71383805    -0.11420
C829        C  0.30111618  0.96250134  0.71432454     0.03250
C830        C  0.28114252  0.95648200  0.75374382    -0.10840
H831        H  0.36530142  0.49996277  0.82164375     0.08850
H832        H  0.36053727  0.48855489  0.68349470     0.06370
H833        H  0.24762200  0.94161771  0.75419729     0.06220
C834        C  0.03088576  0.69658905  0.78675510     0.03260
C835        C  0.03974107  0.71735756  0.74751224    -0.12890
C836        C  0.03074514  0.69571806  0.70823471     0.00760
C837        C  0.51276979  0.65271591  0.70853357    -0.11420
C838        C  0.50360028  0.63168226  0.74776818     0.03250
C839        C  0.51312158  0.65370259  0.78679354    -0.10840
H840        H  0.05398355  0.75063664  0.74756534     0.08850
H841        H  0.50435332  0.63539448  0.67848274     0.06370
H842        H  0.50548577  0.63729248  0.81702876     0.06220
C843        C  0.43640995  0.56335778  0.75044839     0.02420
C844        C  0.41369297  0.51964805  0.75163550     0.02420
C845        C  0.43495482  0.99864067  0.75099810     0.02420
C846        C  0.47874076  0.52145434  0.74904610     0.02420
C847        C  0.00134418  0.56499824  0.74746137     0.02420
C848        C  0.48018089  0.58596059  0.74810098     0.02420
C849        C  0.03869877  0.71855357  0.66743556    -0.05340
C850        C  0.02431939  0.74535980  0.66276410    -0.32770
C851        C  0.03521630  0.77127450  0.62725174     0.36480
C852        C  0.06081984  0.77054259  0.59498853    -0.05690
C853        C  0.07379745  0.74235646  0.59888233    -0.32660
C854        C  0.06274184  0.71634715  0.63462743     0.36390
H855        H  0.00522730  0.74692829  0.68743941     0.16760
O856        O  0.02110466  0.79763812  0.62500453    -0.60160
H857        H  0.09337488  0.74103895  0.57466635     0.16780
O858        O  0.07787029  0.69094730  0.63857160    -0.60260
H859        H  0.05976423  0.66674947  0.61959086     0.43770
H860        H  0.04169359  0.82259619  0.64177772     0.43730
C861        C  0.04038570  0.72011671  0.82754815    -0.05340
C862        C  0.06907918  0.72080933  0.85681297    -0.32770
C863        C  0.08166824  0.74613265  0.89360882     0.36480
C864        C  0.06455186  0.77026138  0.90213862    -0.05690
C865        C  0.03401834  0.76767702  0.87421613    -0.32660
C866        C  0.02271243  0.74367458  0.83645414     0.36390
H867        H  0.08281647  0.70280381  0.85028073     0.16760
O868        O  0.11117022  0.74759578  0.92072409    -0.60160
H869        H  0.02023449  0.78564816  0.88072910     0.16780
O870        O  0.99393286  0.74286856  0.80870191    -0.60260
H871        H  0.00927378  0.76911684  0.79256681     0.43770
H872        H  0.09524193  0.72659807  0.94300802     0.43730
C873        C  0.28144480  0.96247694  0.83347257    -0.05340
C874        C  0.25323000  0.97524415  0.83729853    -0.32770
C875        C  0.22666455  0.96328830  0.87241545     0.36480
C876        C  0.22769375  0.93760645  0.90453901    -0.05690
C877        C  0.25759542  0.92677970  0.90170876    -0.32660
C878        C  0.28469254  0.93957478  0.86687120     0.36390
H879        H  0.25099035  0.99367924  0.81224895     0.16760
O880        O  0.19928529  0.97625634  0.87431952    -0.60160
H881        H  0.25962570  0.90776143  0.92617185     0.16780
O882        O  0.31252307  0.92737160  0.86444159    -0.60260
H883        H  0.33619754  0.94690249  0.88344175     0.43770
H884        H  0.17460020  0.95558835  0.85716016     0.43730
C885        C  0.22526093  0.92523909  0.59883540    -0.05340
C886        C  0.21721343  0.89635589  0.63134631    -0.32770
C887        C  0.24215607  0.90783404  0.66858046     0.36480
C888        C  0.27617780  0.94868487  0.67380997    -0.05690
C889        C  0.28500564  0.97716749  0.64099813    -0.32660
C890        C  0.26006319  0.96589501  0.60368880     0.36390
H891        H  0.19097332  0.86474422  0.62839946     0.16760
O892        O  0.23363699  0.87870309  0.69929907    -0.60160
H893        H  0.31068025  0.50854723  0.64508365     0.16780
O894        O  0.26978764  0.99498516  0.57261502    -0.60260
H895        H  0.28877465  0.49256262  0.55294891     0.43770
H896        H  0.20835480  0.87382889  0.71390704     0.43730
C897        C  0.06605704  0.92720398  0.90213528    -0.05340
C898        C  0.07213417  0.96687269  0.90168826    -0.32770
C899        C  0.05970435  0.98024843  0.86581089     0.36480
C900        C  0.04180648  0.95409613  0.82936389    -0.05690
C901        C  0.03525147  0.91438459  0.83033725    -0.32660
C902        C  0.04718862  0.90092618  0.86590336     0.36390
H903        H  0.08657346  0.98758085  0.92910961     0.16760
O904        O  0.06725103  0.01958310  0.86579353    -0.60160
H905        H  0.02136245  0.89366517  0.80282859     0.16780
O906        O  0.04109582  0.86218361  0.86422364    -0.60260
H907        H  0.06682923  0.86614441  0.85165031     0.43770
H908        H  0.04589266  0.51858765  0.88474693     0.43730
C909        C  0.04852392  0.96073722  0.66961794    -0.05340
C910        C  0.08877213  0.96802841  0.66825463    -0.32770
C911        C  0.10196511  0.95573911  0.63287376     0.36480
C912        C  0.07445660  0.93485716  0.59779311    -0.05690
C913        C  0.03448286  0.92856007  0.59844602    -0.32660
C914        C  0.02165018  0.94192457  0.63371616     0.36390
H915        H  0.11027151  0.98325686  0.69508524     0.16760
O916        O  0.14129234  0.96264768  0.63405065    -0.60160
H917        H  0.01300154  0.91307074  0.57167933     0.16780
O918        O  0.48210718  0.93438352  0.63374514    -0.60260
H919        H  0.48276942  0.95507522  0.61401730     0.43770
H920        H  0.15981143  0.99158874  0.62448349     0.43730
C921        C  0.18804705  0.65350911  0.59669400    -0.05340
C922        C  0.16788558  0.61272082  0.61173015    -0.32770
C923        C  0.14138441  0.60058777  0.64700638     0.36480
C924        C  0.13569098  0.62954912  0.66856162    -0.05690
C925        C  0.15532478  0.67013501  0.65343780    -0.32660
C926        C  0.18090460  0.68209338  0.61735330     0.36390
H927        H  0.17265930  0.59020414  0.59607076     0.16760
O928        O  0.12209591  0.56065740  0.66104788    -0.60160
H929        H  0.15143581  0.69277215  0.67017408     0.16780
O930        O  0.20085724  0.72243340  0.60425693    -0.60260
H931        H  0.18030396  0.72403143  0.58582908     0.43770
H932        H  0.09420959  0.54630691  0.64698487     0.43730
C933        C  0.13555406  0.62654268  0.82835391    -0.05340
C934        C  0.14180273  0.66042923  0.85252414    -0.32770
C935        C  0.16672774  0.67323769  0.88975404     0.36480
C936        C  0.18553170  0.65173934  0.90351144    -0.05690
C937        C  0.17761483  0.61653338  0.88034290    -0.32660
C938        C  0.15331085  0.60429414  0.84248751     0.36390
H939        H  0.12837244  0.67777114  0.84166951     0.16760
O940        O  0.17314134  0.70728871  0.91204683    -0.60160
H941        H  0.19180773  0.59966600  0.89048698     0.16780
O942        O  0.14716005  0.57072650  0.81941602    -0.60260
H943        H  0.17088875  0.58193819  0.79945828     0.43770
H944        H  0.15148534  0.69615129  0.93445978     0.43730
C945        C  0.37801194  0.86384816  0.82814392    -0.05340
C946        C  0.34960480  0.86317259  0.85688811    -0.32770
C947        C  0.33655060  0.83759222  0.89297158     0.36480
C948        C  0.35180627  0.81153027  0.90070238    -0.05690
C949        C  0.38103593  0.81292480  0.87213841    -0.32660
C950        C  0.39408451  0.83875615  0.83620841     0.36390
H951        H  0.33621499  0.88133176  0.85019954     0.16760
O952        O  0.30761594  0.83721054  0.91931088    -0.60160
H953        H  0.39350437  0.79350943  0.87719677     0.16780
O954        O  0.42193584  0.83866293  0.80860232    -0.60260
H955        H  0.44928998  0.85556738  0.82333683     0.43770
H956        H  0.32391037  0.86029933  0.94013083     0.43730
C957        C  0.37583205  0.86639997  0.66840091    -0.05340
C958        C  0.34094642  0.85945876  0.64500098    -0.32770
C959        C  0.32704667  0.83374707  0.60844735     0.36480
C960        C  0.34910039  0.81580437  0.59399337    -0.05690
C961        C  0.38521335  0.82444048  0.61640257    -0.32660
C962        C  0.39807597  0.84881193  0.65397922     0.36390
H963        H  0.32352031  0.87272689  0.65607519     0.16760
O964        O  0.29212737  0.82666274  0.58679163    -0.60160
H965        H  0.40235347  0.81068898  0.60594068     0.16780
O966        O  0.43231788  0.85523684  0.67652439    -0.60260
H967        H  0.42181254  0.83094669  0.69552352     0.43770
H968        H  0.26837018  0.80607751  0.60424990     0.43730
C969        C  0.37788929  0.63668190  0.67223181    -0.05340
C970        C  0.38033573  0.67473242  0.67287682    -0.32770
C971        C  0.36784073  0.68793065  0.63719164     0.36480
C972        C  0.35221766  0.66288783  0.59973627    -0.05690
C973        C  0.35149165  0.62585800  0.59819371    -0.32660
C974        C  0.36520578  0.61326031  0.63349407     0.36390
H975        H  0.39152455  0.69425230  0.70146872     0.16760
O976        O  0.37006505  0.72492654  0.63980790    -0.60160
H977        H  0.34057827  0.60668313  0.56933236     0.16780
O978        O  0.36461166  0.57724420  0.63006843    -0.60260
H979        H  0.38796217  0.58357362  0.61089967     0.43770
H980        H  0.34271588  0.71797034  0.65084067     0.43730
C981        C  0.36674501  0.62220614  0.83227593    -0.05340
C982        C  0.32432708  0.60506322  0.83921878    -0.32770
C983        C  0.31082907  0.61619062  0.87554333     0.36480
C984        C  0.34014984  0.64616192  0.90520790    -0.05690
C985        C  0.38266656  0.66194010  0.89892126    -0.32660
C986        C  0.39591866  0.64968388  0.86313863     0.36390
H987        H  0.30155163  0.58337773  0.81593927     0.16760
O988        O  0.26889823  0.59866563  0.88060266    -0.60160
H989        H  0.40586136  0.68447546  0.92129337     0.16780
O990        O  0.43761139  0.66656956  0.85727401    -0.60260
H991        H  0.44448089  0.64869393  0.87361858     0.43770
H992        H  0.25932842  0.57247813  0.89608802     0.43730
C993        C  0.88023690  0.11371994  0.29117632     0.03260
C994        C  0.90135094  0.09291919  0.29043239    -0.12890
C995        C  0.91441117  0.08568260  0.25122839     0.00760
C996        C  0.90779367  0.10066951  0.21281955    -0.11420
C997        C  0.88618825  0.12119623  0.21283544     0.03250
C998        C  0.87206130  0.12700392  0.25239593    -0.10840
H999        H  0.90748175  0.08224029  0.32019581     0.08850
H1000       H  0.92022882  0.09675600  0.18330442     0.06370
H1001       H  0.85481461  0.14220511  0.25327699     0.06220
C1002       C  0.88767456  0.38797913  0.28801410     0.03260
C1003       C  0.87929486  0.36749136  0.24816767    -0.12890
C1004       C  0.88651766  0.38909104  0.20968792     0.00760
C1005       C  0.90271964  0.43169136  0.21087108    -0.11420
C1006       C  0.91195266  0.45278331  0.25046972     0.03250
C1007       C  0.90377058  0.43076898  0.28907406    -0.10840
H1008       H  0.86609595  0.33437584  0.24705799     0.08850
H1009       H  0.90921752  0.44861400  0.18106000     0.06370
H1010       H  0.91113136  0.44708968  0.31969065     0.06220
O1011       O  0.71949740  0.19185173  0.03336043    -0.85220
O1012       O  0.79422737  0.26164972  0.05319032    -0.82260
C1013       C  0.83291468  0.28563237  0.05794261     0.98240
O1014       O  0.85763604  0.28381805  0.03223559    -0.82300
O1015       O  0.85277903  0.21301253  0.05506837    -0.84940
C1016       C  0.83687764  0.17520445  0.06238438     1.02770
O1017       O  0.80845883  0.14801196  0.03772896    -0.77700
O1018       O  0.73947427  0.15097640  0.05666369    -0.77890
C1019       C  0.71727572  0.16617650  0.06052814     1.02720
O1020       O  0.74011459  0.20642782  0.44392703    -0.85220
O1021       O  0.81111525  0.28088692  0.46357638    -0.82280
C1022       C  0.83701120  0.28218893  0.43728847     0.98260
O1023       O  0.85075067  0.25887936  0.44249699    -0.82310
O1024       O  0.85371257  0.19113818  0.46582185    -0.84910
C1025       C  0.82694088  0.16224758  0.44131592     1.02740
O1026       O  0.78883906  0.14706941  0.44732097    -0.77730
O1027       O  0.71726224  0.14333198  0.46600086    -0.77880
C1028       C  0.71584138  0.16787856  0.43966258     1.02700
Cr1029     Cr  0.76824610  0.23311713  0.99855320     1.93740
Cr1030     Cr  0.84953451  0.23452465  0.49884987     1.93210
Cr1031     Cr  0.76572649  0.15150255  0.00188533     1.39100
O1032       O  0.79447296  0.20630132  0.49979364    -1.22970
C1033       C  0.61242011  0.11634716  0.28721787     0.03260
C1034       C  0.63391915  0.12692508  0.24834240    -0.12890
C1035       C  0.61236040  0.11857595  0.20898502     0.00760
C1036       C  0.56894350  0.09909824  0.20855023    -0.11420
C1037       C  0.54732657  0.08839519  0.24747958     0.03250
C1038       C  0.56916726  0.09739881  0.28673208    -0.10840
H1039       H  0.66747160  0.14185249  0.24872408     0.08850
H1040       H  0.55202646  0.09179383  0.17817015     0.06370
H1041       H  0.55242484  0.08897472  0.31677301     0.06220
O1042       O  0.61943363  0.32407083  0.44289867    -0.85220
O1043       O  0.69461384  0.39374600  0.46514691    -0.82260
C1044       C  0.69731064  0.42128186  0.44010405     0.98240
O1045       O  0.67434217  0.43526299  0.44549600    -0.82300
O1046       O  0.60684309  0.43874666  0.46625174    -0.84940
C1047       C  0.57948678  0.41309693  0.43964909     1.02770
O1048       O  0.56307792  0.37490117  0.44487244    -0.77700
O1049       O  0.55592365  0.30213457  0.46369451    -0.77890
C1050       C  0.58069425  0.30040578  0.43800179     1.02720
O1051       O  0.60110150  0.30125568  0.03180800    -0.85220
O1052       O  0.67169051  0.37384120  0.05445976    -0.82280
C1053       C  0.69658758  0.41191348  0.06097950     0.98260
O1054       O  0.69685739  0.43793476  0.03543376    -0.82310
O1055       O  0.62534126  0.43378582  0.05596675    -0.84910
C1056       C  0.58733644  0.41956488  0.06104521     1.02740
O1057       O  0.56070090  0.39288398  0.03468760    -0.77730
O1058       O  0.56214885  0.32370812  0.05417228    -0.77880
C1059       C  0.57542069  0.29996463  0.05852747     1.02700
Cr1060     Cr  0.64493620  0.35035174  0.49855037     1.93740
Cr1061     Cr  0.64866987  0.43240940  0.00068795     1.93210
Cr1062     Cr  0.56443582  0.35037995  0.99943365     1.39100
O1063       O  0.61932690  0.37769764  0.99934775    -1.22970
C1064       C  0.53233167  0.46796265  0.28873661     0.03260
C1065       C  0.54427005  0.45934679  0.24949457    -0.12890
C1066       C  0.53483365  0.47046216  0.21005152     0.00760
C1067       C  0.51348385  0.49110900  0.21009291    -0.11420
C1068       C  0.00121785  0.99969989  0.24910805     0.03270
C1069       C  0.51045074  0.48803895  0.28829915    -0.10840
H1070       H  0.56098408  0.44358672  0.24964275     0.08850
H1071       H  0.00688218  0.00104874  0.18012497     0.06370
H1072       H  0.00006438  0.99414124  0.31812731     0.06220
C1073       C  0.80390069  0.46962473  0.29261186     0.03260
C1074       C  0.84731989  0.98916921  0.29188869    -0.12890
C1075       C  0.86773704  0.99616843  0.25254062     0.00760
C1076       C  0.84463894  0.98290266  0.21383731    -0.11420
C1077       C  0.80110315  0.46250523  0.21432326     0.03250
C1078       C  0.78113028  0.45648849  0.25374259    -0.10840
H1079       H  0.86531434  0.99996550  0.32164200     0.08850
H1080       H  0.86054901  0.98854699  0.18349412     0.06370
H1081       H  0.74760989  0.44162540  0.25419657     0.06220
C1082       C  0.53088806  0.19659042  0.28675720     0.03260
C1083       C  0.53974055  0.21735742  0.24751356    -0.12890
C1084       C  0.53074599  0.19571707  0.20823676     0.00760
C1085       C  0.01277524  0.15271568  0.20853711    -0.11420
C1086       C  0.00360860  0.13168340  0.24777236     0.03250
C1087       C  0.01312829  0.15370456  0.28679705    -0.10840
H1088       H  0.55397969  0.25063602  0.24756544     0.08850
H1089       H  0.00435948  0.13539344  0.17848684     0.06370
H1090       H  0.00549415  0.13729539  0.31703278     0.06220
C1091       C  0.93642037  0.06335724  0.25045213     0.02420
C1092       C  0.91370498  0.01964741  0.25163401     0.02420
C1093       C  0.93494041  0.49863939  0.25099173     0.02420
C1094       C  0.97875431  0.02145682  0.24904324     0.02420
C1095       C  0.50135625  0.06500097  0.24746368     0.02420
C1096       C  0.98019136  0.08596175  0.24810586     0.02420
C1097       C  0.53869598  0.21855058  0.16743672    -0.05340
C1098       C  0.52431233  0.24535326  0.16276455    -0.32770
C1099       C  0.53520573  0.27126627  0.12725107     0.36480
C1100       C  0.56080987  0.27053606  0.09498748    -0.05690
C1101       C  0.57379144  0.24235311  0.09888192    -0.32660
C1102       C  0.56273955  0.21634566  0.13462816     0.36390
H1103       H  0.50521971  0.24692044  0.18744016     0.16760
O1104       O  0.52109033  0.29762677  0.12500323    -0.60160
H1105       H  0.59336945  0.24103698  0.07466567     0.16780
O1106       O  0.57787238  0.19094955  0.13857306    -0.60260
H1107       H  0.55976759  0.16675035  0.11959341     0.43770
H1108       H  0.54167807  0.32258608  0.14177559     0.43730
C1109       C  0.54038588  0.22011898  0.32754948    -0.05340
C1110       C  0.56907895  0.22081344  0.35681637    -0.32770
C1111       C  0.58166572  0.24613744  0.39361160     0.36480
C1112       C  0.56454756  0.27026506  0.40213866    -0.05690
C1113       C  0.53401446  0.26767884  0.37421417    -0.32660
C1114       C  0.52271077  0.24367573  0.33645281     0.36390
H1115       H  0.58281775  0.20280886  0.35028630     0.16760
O1116       O  0.61116731  0.24760238  0.42072897    -0.60160
H1117       H  0.52022913  0.28564895  0.38072514     0.16780
O1118       O  0.49393103  0.24286738  0.30869897    -0.60260
H1119       H  0.50927076  0.26911628  0.29256473     0.43770
H1120       H  0.59523871  0.22660534  0.44301336     0.43730
C1121       C  0.78143371  0.46248379  0.33347117    -0.05340
C1122       C  0.75322250  0.47525521  0.33729991    -0.32770
C1123       C  0.72665752  0.46329978  0.37241734     0.36480
C1124       C  0.72768373  0.43761427  0.40453842    -0.05690
C1125       C  0.75758178  0.42678296  0.40170508    -0.32660
C1126       C  0.78467794  0.43957700  0.36686687     0.36390
H1127       H  0.75098517  0.49369317  0.31225210     0.16760
O1128       O  0.69928178  0.47627201  0.37432440    -0.60160
H1129       H  0.75960942  0.40776124  0.42616580     0.16780
O1130       O  0.81250338  0.42736770  0.36443317    -0.60260
H1131       H  0.83618061  0.44689650  0.38343163     0.43770
H1132       H  0.67459610  0.45560743  0.35716343     0.43730
C1133       C  0.72524557  0.42523734  0.09883543    -0.05340
C1134       C  0.71719804  0.39635594  0.13134837    -0.32770
C1135       C  0.74214133  0.40783594  0.16858222     0.36480
C1136       C  0.77616379  0.44868680  0.17380929    -0.05690
C1137       C  0.78499130  0.47716758  0.14099556    -0.32660
C1138       C  0.76004819  0.46589329  0.10368662     0.36390
H1139       H  0.69095750  0.36474433  0.12840323     0.16760
O1140       O  0.73362220  0.37870672  0.19930293    -0.60160
H1141       H  0.81069983  0.00853404  0.14507621     0.16780
O1142       O  0.76977251  0.49498173  0.07261090    -0.60260
H1143       H  0.78878963  0.99254354  0.05294256     0.43770
H1144       H  0.70834053  0.37383406  0.21391079     0.43730
C1145       C  0.56604174  0.42720266  0.40213383    -0.05340
C1146       C  0.57211652  0.46687035  0.40168606    -0.32770
C1147       C  0.55968581  0.48024452  0.36580809     0.36480
C1148       C  0.54178944  0.45409164  0.32936116    -0.05690
C1149       C  0.53523664  0.41438099  0.33033545    -0.32660
C1150       C  0.54717469  0.40092419  0.36590214     0.36390
H1151       H  0.58655472  0.48757896  0.42910726     0.16760
O1152       O  0.56723032  0.51957837  0.36579011    -0.60160
H1153       H  0.52134908  0.39366114  0.30282695     0.16780
O1154       O  0.54108437  0.36218261  0.36422312    -0.60260
H1155       H  0.56681861  0.36614495  0.35165034     0.43770
H1156       H  0.54591033  0.01859606  0.38474500     0.43730
C1157       C  0.54850484  0.46072883  0.16961468    -0.05340
C1158       C  0.58875280  0.46801941  0.16825214    -0.32770
C1159       C  0.60194567  0.45572907  0.13287212     0.36480
C1160       C  0.57443748  0.43484716  0.09779124    -0.05690
C1161       C  0.53446409  0.42855095  0.09844313    -0.32660
C1162       C  0.52163146  0.44191636  0.13371259     0.36390
H1163       H  0.61025202  0.48324799  0.19508284     0.16760
O1164       O  0.64127246  0.46263656  0.13405011    -0.60160
H1165       H  0.51298316  0.41306189  0.07167608     0.16780
O1166       O  0.98208900  0.43437669  0.13374045    -0.60260
H1167       H  0.98275248  0.45506889  0.11401241     0.43770
H1168       H  0.65979240  0.49157764  0.12448342     0.43730
C1169       C  0.68805553  0.15350157  0.09669556    -0.05340
C1170       C  0.66788786  0.11271265  0.11173047    -0.32770
C1171       C  0.64138766  0.10058341  0.14700730     0.36480
C1172       C  0.63570219  0.12954926  0.16856437    -0.05690
C1173       C  0.65534280  0.17013599  0.15344199    -0.32660
C1174       C  0.68092137  0.18209064  0.11735697     0.36390
H1175       H  0.67265551  0.09019261  0.09606935     0.16760
O1176       O  0.62209226  0.06065223  0.16104754    -0.60160
H1177       H  0.65145953  0.19277636  0.17017938     0.16780
O1178       O  0.70088079  0.22243136  0.10426177    -0.60260
H1179       H  0.68033032  0.22403472  0.08583462     0.43770
H1180       H  0.59420715  0.04630605  0.14698207     0.43730
C1181       C  0.63556733  0.12655538  0.32835657    -0.05340
C1182       C  0.64181735  0.16044292  0.35252599    -0.32770
C1183       C  0.66674372  0.17325209  0.38975503     0.36480
C1184       C  0.68554705  0.15175308  0.40351249    -0.05690
C1185       C  0.67762890  0.11654642  0.38034468    -0.32660
C1186       C  0.65332414  0.10430681  0.34248999     0.36390
H1187       H  0.62838713  0.17778499  0.34167141     0.16760
O1188       O  0.67315922  0.20730431  0.41204687    -0.60160
H1189       H  0.69182150  0.09967874  0.39048867     0.16780
O1190       O  0.64717281  0.07073885  0.31941871    -0.60260
H1191       H  0.67090170  0.08195007  0.29946127     0.43770
H1192       H  0.65150296  0.19616840  0.43445951     0.43730
C1193       C  0.87800663  0.36385058  0.32813920    -0.05340
C1194       C  0.84961173  0.36318472  0.35689405    -0.32770
C1195       C  0.83656366  0.33760766  0.39297992     0.36480
C1196       C  0.85181453  0.31154059  0.40070359    -0.05690
C1197       C  0.88103341  0.31292664  0.37212995    -0.32660
C1198       C  0.89407511  0.33875385  0.33619691     0.36390
H1199       H  0.83622695  0.38134966  0.35021288     0.16760
O1200       O  0.80763990  0.33723491  0.41932940    -0.60160
H1201       H  0.89349809  0.29350732  0.37718278     0.16780
O1202       O  0.92191613  0.33865243  0.30858184    -0.60260
H1203       H  0.94927501  0.35555864  0.32330648     0.43770
H1204       H  0.82394350  0.36032336  0.44014717     0.43730
C1205       C  0.87582451  0.36639786  0.16839527    -0.05340
C1206       C  0.84094170  0.35945609  0.14498921    -0.32770
C1207       C  0.82704510  0.33374173  0.10843755     0.36480
C1208       C  0.84909921  0.31579675  0.09399176    -0.05690
C1209       C  0.88520984  0.32443382  0.11640645    -0.32660
C1210       C  0.89806922  0.34880802  0.15398115     0.36390
H1211       H  0.82351491  0.37272545  0.15605740     0.16760
O1212       O  0.79212846  0.32665693  0.08677557    -0.60160
H1213       H  0.90235037  0.31068093  0.10595053     0.16780
O1214       O  0.93230888  0.35523398  0.17653189    -0.60260
H1215       H  0.92180205  0.33094354  0.19553085     0.43770
H1216       H  0.76836914  0.30607561  0.10423418     0.43730
C1217       C  0.87789377  0.13667507  0.17223439    -0.05340
C1218       C  0.88033845  0.17472476  0.17287834    -0.32770
C1219       C  0.86784374  0.18792206  0.13719214     0.36480
C1220       C  0.85222312  0.16287939  0.09973649    -0.05690
C1221       C  0.85149831  0.12585018  0.09819516    -0.32660
C1222       C  0.86521183  0.11325327  0.13349674     0.36390
H1223       H  0.89152596  0.19424492  0.20147005     0.16760
O1224       O  0.87006590  0.22491693  0.13980761    -0.60160
H1225       H  0.84058642  0.10667525  0.06933383     0.16780
O1226       O  0.86461876  0.07723769  0.13007227    -0.60260
H1227       H  0.88796944  0.08356724  0.11090369     0.43770
H1228       H  0.84271554  0.21795919  0.15083822     0.43730
C1229       C  0.86675587  0.12220764  0.33227970    -0.05340
C1230       C  0.82433843  0.10506839  0.33922192    -0.32770
C1231       C  0.81084188  0.11619967  0.37554471     0.36480
C1232       C  0.84016371  0.14617146  0.40520828    -0.05690
C1233       C  0.88267983  0.16194594  0.39892260    -0.32660
C1234       C  0.89593037  0.14968555  0.36314183     0.36390
H1235       H  0.80156217  0.08338284  0.31594302     0.16760
O1236       O  0.76891142  0.09867797  0.38060314    -0.60160
H1237       H  0.90587536  0.18448128  0.42129418     0.16780
O1238       O  0.93762258  0.16656727  0.35727834    -0.60260
H1239       H  0.94448975  0.14869157  0.37362627     0.43770
H1240       H  0.75933927  0.07249039  0.39608932     0.43730
C1241       C  0.88023559  0.11371867  0.79117163     0.03260
C1242       C  0.90134890  0.09291729  0.79042751    -0.12890
C1243       C  0.91441053  0.08568208  0.75122376     0.00760
C1244       C  0.90779460  0.10067057  0.71281510    -0.11420
C1245       C  0.88619025  0.12119842  0.71283130     0.03250
C1246       C  0.87206218  0.12700498  0.75239162    -0.10840
H1247       H  0.90747838  0.08223707  0.82019077     0.08850
H1248       H  0.92023007  0.09675752  0.68329993     0.06370
H1249       H  0.85481638  0.14220709  0.75327280     0.06220
C1250       C  0.88767716  0.38797942  0.78802144     0.03260
C1251       C  0.87929789  0.36749201  0.74817480    -0.12890
C1252       C  0.88651981  0.38909182  0.70969532     0.00760
C1253       C  0.90272045  0.43169171  0.71087876    -0.11420
C1254       C  0.91195346  0.45278354  0.75047727     0.03250
C1255       C  0.90377225  0.43076923  0.78908171    -0.10840
H1256       H  0.86609972  0.33437663  0.74706474     0.08850
H1257       H  0.90921757  0.44861432  0.68106773     0.06370
H1258       H  0.91113281  0.44708978  0.81969835     0.06220
O1259       O  0.71950243  0.19186293  0.53336096    -0.85220
O1260       O  0.79423284  0.26165989  0.55319105    -0.82260
C1261       C  0.83292012  0.28564186  0.55794401     0.98240
O1262       O  0.85764158  0.28382811  0.53223662    -0.82300
O1263       O  0.85278405  0.21302213  0.55506900    -0.84940
C1264       C  0.83688265  0.17521388  0.56238411     1.02770
O1265       O  0.80846321  0.14802195  0.53772878    -0.77700
O1266       O  0.73947941  0.15098769  0.55666398    -0.77890
C1267       C  0.71728022  0.16618710  0.56052825     1.02720
O1268       O  0.74010920  0.20641604  0.94392662    -0.85220
O1269       O  0.81110919  0.28087599  0.96357571    -0.82280
C1270       C  0.83700625  0.28217938  0.93728843     0.98260
O1271       O  0.85074551  0.25886953  0.94249621    -0.82310
O1272       O  0.85370797  0.19112852  0.96582128    -0.84910
C1273       C  0.82693653  0.16223801  0.94131511     1.02740
O1274       O  0.78883462  0.14705866  0.94732079    -0.77730
O1275       O  0.71725744  0.14332022  0.96600036    -0.77880
C1276       C  0.71583647  0.16786670  0.93966206     1.02700
Cr1277     Cr  0.76825163  0.23312826  0.49855381     1.93740
Cr1278     Cr  0.84952936  0.23451464  0.99884914     1.93210
Cr1279     Cr  0.76573116  0.15151344  0.50188555     1.39100
O1280       O  0.79446782  0.20629063  0.99979315    -1.22970
C1281       C  0.61241917  0.11634132  0.78721523     0.03260
C1282       C  0.63391859  0.12692150  0.74833993    -0.12890
C1283       C  0.61236049  0.11857736  0.70898270     0.00760
C1284       C  0.56894375  0.09910173  0.70854788    -0.11420
C1285       C  0.54732645  0.08839546  0.74747715     0.03250
C1286       C  0.56916663  0.09739478  0.78672940    -0.10840
H1287       H  0.66747088  0.14184749  0.74872165     0.08850
H1288       H  0.55202707  0.09180051  0.67816787     0.06370
H1289       H  0.55242394  0.08896875  0.81677021     0.06220
O1290       O  0.61943169  0.32406551  0.94289875    -0.85220
O1291       O  0.69461174  0.39374049  0.96514718    -0.82260
C1292       C  0.69730857  0.42127644  0.94010439     0.98240
O1293       O  0.67434003  0.43525749  0.94549632    -0.82300
O1294       O  0.60684125  0.43874162  0.96625224    -0.84940
C1295       C  0.57948522  0.41309237  0.93964911     1.02770
O1296       O  0.56307633  0.37489650  0.94487177    -0.77700
O1297       O  0.55592152  0.30212952  0.96369370    -0.77890
C1298       C  0.58069235  0.30040086  0.93800119     1.02720
O1299       O  0.60110402  0.30126116  0.53180790    -0.85220
O1300       O  0.67169304  0.37384691  0.55445932    -0.82280
C1301       C  0.69658992  0.41191920  0.56097932     0.98260
O1302       O  0.69685961  0.43794055  0.53543373    -0.82310
O1303       O  0.62534356  0.43379164  0.55596651    -0.84910
C1304       C  0.58733872  0.41957029  0.56104543     1.02740
O1305       O  0.56070309  0.39288919  0.53468805    -0.77730
O1306       O  0.56215167  0.32371366  0.55417295    -0.77880
C1307       C  0.57542312  0.29996980  0.55852746     1.02700
Cr1308     Cr  0.64493391  0.35034620  0.99855058     1.93740
Cr1309     Cr  0.64867199  0.43241492  0.50068769     1.93210
Cr1310     Cr  0.56443804  0.35038515  0.49943428     1.39100
O1311       O  0.61932912  0.37770310  0.49934779    -1.22970
C1312       C  0.53233209  0.46796229  0.78873857     0.03260
C1313       C  0.54427123  0.45934778  0.74949625    -0.12890
C1314       C  0.53483523  0.47046419  0.71005366     0.00760
C1315       C  0.51348526  0.49111081  0.71009579    -0.11420
C1316       C  0.00121856  0.99970051  0.74911119     0.03270
C1317       C  0.51045082  0.48803829  0.78830188    -0.10840
H1318       H  0.56098542  0.44358787  0.74964386     0.08850
H1319       H  0.00688413  0.00105144  0.68012817     0.06370
H1320       H  0.00006414  0.99413988  0.81813032     0.06220
C1321       C  0.80390034  0.46962271  0.79261313     0.03260
C1322       C  0.84731962  0.98916697  0.79189040    -0.12890
C1323       C  0.86773722  0.99616817  0.75254230     0.00760
C1324       C  0.84463962  0.98290478  0.71383862    -0.11420
C1325       C  0.80110380  0.46250742  0.71432416     0.03250
C1326       C  0.78113041  0.45648840  0.75374348    -0.10840
H1327       H  0.86531377  0.99996191  0.82164397     0.08850
H1328       H  0.86055001  0.98855080  0.68349541     0.06370
H1329       H  0.74760998  0.44162508  0.75419710     0.06220
C1330       C  0.53088738  0.19658958  0.78675357     0.03260
C1331       C  0.53973967  0.21735723  0.74751039    -0.12890
C1332       C  0.53074514  0.19571754  0.70823314     0.00760
C1333       C  0.01277447  0.15271610  0.70853257    -0.11420
C1334       C  0.00360801  0.13168323  0.74776746     0.03250
C1335       C  0.01312783  0.15370380  0.78679252    -0.10840
H1336       H  0.55397872  0.25063583  0.74756298     0.08850
H1337       H  0.00435878  0.13539435  0.67848199     0.06370
H1338       H  0.00549389  0.13729418  0.81702797     0.06220
C1339       C  0.93642001  0.06335697  0.75044840     0.02420
C1340       C  0.91370514  0.01964735  0.75163587     0.02420
C1341       C  0.93494086  0.49863958  0.75099783     0.02420
C1342       C  0.97875472  0.02145718  0.74904659     0.02420
C1343       C  0.50135615  0.06500111  0.74746161     0.02420
C1344       C  0.98019094  0.08596160  0.74810089     0.02420
C1345       C  0.53869551  0.21855196  0.66743367    -0.05340
C1346       C  0.52431231  0.24535510  0.66276242    -0.32770
C1347       C  0.53520673  0.27126943  0.62724995     0.36480
C1348       C  0.56081149  0.27054016  0.59498651    -0.05690
C1349       C  0.57379251  0.24235670  0.59887991    -0.32660
C1350       C  0.56273954  0.21634788  0.63462508     0.36390
H1351       H  0.50521932  0.24692164  0.68743802     0.16760
O1352       O  0.52109167  0.29763024  0.62500294    -0.60160
H1353       H  0.59337087  0.24104116  0.57466368     0.16780
O1354       O  0.57787171  0.19095116  0.63856897    -0.60260
H1355       H  0.55976707  0.16675275  0.61958835     0.43770
H1356       H  0.54167914  0.32258892  0.64177630     0.43730
C1357       C  0.54038516  0.22011728  0.82754639    -0.05340
C1358       C  0.56907868  0.22081161  0.85681252    -0.32770
C1359       C  0.58166496  0.24613440  0.89360863     0.36480
C1360       C  0.56454597  0.27026102  0.90213726    -0.05690
C1361       C  0.53401260  0.26767502  0.87421334    -0.32660
C1362       C  0.52270927  0.24367301  0.83645122     0.36390
H1363       H  0.58281819  0.20280788  0.85028119     0.16760
O1364       O  0.61116691  0.24759918  0.92072530    -0.60160
H1365       H  0.52022682  0.28564456  0.88072535     0.16780
O1366       O  0.49392917  0.24286480  0.80869803    -0.60260
H1367       H  0.50926862  0.26911393  0.79256414     0.43770
H1368       H  0.59523863  0.22660103  0.94300887     0.43730
C1369       C  0.78143277  0.46248056  0.83347228    -0.05340
C1370       C  0.75322106  0.47525135  0.83730112    -0.32770
C1371       C  0.72665554  0.46329492  0.87241812     0.36480
C1372       C  0.72768184  0.43760923  0.90453891    -0.05690
C1373       C  0.75758030  0.42677845  0.90170553    -0.32660
C1374       C  0.78467692  0.43957337  0.86686761     0.36390
H1375       H  0.75098375  0.49368960  0.81225365     0.16760
O1376       O  0.69927919  0.47626642  0.87432502    -0.60160
H1377       H  0.75960797  0.40775657  0.92616603     0.16780
O1378       O  0.81250279  0.42736462  0.86443380    -0.60260
H1379       H  0.83617955  0.44689305  0.88343296     0.43770
H1380       H  0.67459382  0.45560167  0.85716378     0.43730
C1381       C  0.72524769  0.42524278  0.59883552    -0.05340
C1382       C  0.71720186  0.39635988  0.63134624    -0.32770
C1383       C  0.74214468  0.40783906  0.66858030     0.36480
C1384       C  0.77616493  0.44869065  0.67380998    -0.05690
C1385       C  0.78499059  0.47717335  0.64099887    -0.32660
C1386       C  0.76004808  0.46589976  0.60368946     0.36390
H1387       H  0.69096301  0.36474758  0.62839920     0.16760
O1388       O  0.73362715  0.37870843  0.69929879    -0.60160
H1389       H  0.81069710  0.00854059  0.64508225     0.16780
O1390       O  0.76977060  0.49498986  0.57261615    -0.60260
H1391       H  0.78879024  0.99255577  0.55294773     0.43770
H1392       H  0.70834538  0.37383403  0.71390792     0.43730
C1393       C  0.56604060  0.42719899  0.90213426    -0.05340
C1394       C  0.57211608  0.46686700  0.90168742    -0.32770
C1395       C  0.55968602  0.48024227  0.86580989     0.36480
C1396       C  0.54178942  0.45409014  0.82936253    -0.05690
C1397       C  0.53523607  0.41437924  0.83033574    -0.32660
C1398       C  0.54717352  0.40092133  0.86590202     0.36390
H1399       H  0.58655444  0.48757507  0.92910899     0.16760
O1400       O  0.56723149  0.51957650  0.86579269    -0.60160
H1401       H  0.52134837  0.39366004  0.80282677     0.16780
O1402       O  0.54108255  0.36217950  0.86422212    -0.60260
H1403       H  0.56681667  0.36614164  0.85164924     0.43770
H1404       H  0.54591211  0.01859484  0.88474714     0.43730
C1405       C  0.54850667  0.46073188  0.66961643    -0.05340
C1406       C  0.58875487  0.46802313  0.66825341    -0.32770
C1407       C  0.60194802  0.45573387  0.63287273     0.36480
C1408       C  0.57443974  0.43485207  0.59779187    -0.05690
C1409       C  0.53446603  0.42855504  0.59844438    -0.32660
C1410       C  0.52163318  0.44191952  0.63371441     0.36390
H1411       H  0.61025404  0.48325144  0.69508421     0.16760
O1412       O  0.64127516  0.46264223  0.63405005    -0.60160
H1413       H  0.51298498  0.41306595  0.57167742     0.16780
O1414       O  0.98209038  0.43437894  0.63374294    -0.60260
H1415       H  0.98275321  0.45507120  0.61401552     0.43770
H1416       H  0.65979453  0.49158350  0.62448363     0.43730
C1417       C  0.68805822  0.15350967  0.59669457    -0.05340
C1418       C  0.66789841  0.11272246  0.61173345    -0.32770
C1419       C  0.64139754  0.10059078  0.64700977     0.36480
C1420       C  0.63570268  0.12955243  0.66856217    -0.05690
C1421       C  0.65533493  0.17013726  0.65343570    -0.32660
C1422       C  0.68091469  0.18209430  0.61735131     0.36390
H1423       H  0.67267298  0.09020555  0.59607603     0.16760
O1424       O  0.62211024  0.06066135  0.66105382    -0.60160
H1425       H  0.65144481  0.19277463  0.67016981     0.16780
O1426       O  0.70086612  0.22243351  0.60425244    -0.60260
H1427       H  0.68031229  0.22402974  0.58582369     0.43770
H1428       H  0.59422350  0.04630973  0.64699170     0.43730
C1429       C  0.63556554  0.12654720  0.82835422    -0.05340
C1430       C  0.64181146  0.16043112  0.85252747    -0.32770
C1431       C  0.66673647  0.17323854  0.88975732     0.36480
C1432       C  0.68554248  0.15174132  0.90351185    -0.05690
C1433       C  0.67762797  0.11653763  0.88034057    -0.32660
C1434       C  0.65332445  0.10429979  0.84248501     0.36390
H1435       H  0.62837904  0.17777190  0.84167532     0.16760
O1436       O  0.67314821  0.20728754  0.91205286    -0.60160
H1437       H  0.69182244  0.09967119  0.89048260     0.16780
O1438       O  0.64717586  0.07073440  0.81941072    -0.60260
H1439       H  0.67090570  0.08194833  0.79945427     0.43770
H1440       H  0.65149077  0.19614801  0.93446433     0.43730
C1441       C  0.87800871  0.36384989  0.82814601    -0.05340
C1442       C  0.84961074  0.36318051  0.85689903    -0.32770
C1443       C  0.83656021  0.33760039  0.89298260     0.36480
C1444       C  0.85181156  0.31153363  0.90070572    -0.05690
C1445       C  0.88103356  0.31292327  0.87213413    -0.32660
C1446       C  0.89407793  0.33875374  0.83620348     0.36390
H1447       H  0.83622514  0.38134471  0.85021786     0.16760
O1448       O  0.80763339  0.33722418  0.91933005    -0.60160
H1449       H  0.89349871  0.29350433  0.87718668     0.16780
O1450       O  0.92192164  0.33865554  0.80858982    -0.60260
H1451       H  0.94927732  0.35554724  0.82332441     0.43770
H1452       H  0.82393455  0.36031094  0.94015029     0.43730
C1453       C  0.87582677  0.36639959  0.66840227    -0.05340
C1454       C  0.84094475  0.35945956  0.64499605    -0.32770
C1455       C  0.82704945  0.33374804  0.60844238     0.36480
C1456       C  0.84910419  0.31580433  0.59399476    -0.05690
C1457       C  0.88521407  0.32443970  0.61640981    -0.32660
C1458       C  0.89807213  0.34881104  0.65398649     0.36390
H1459       H  0.82351770  0.37272827  0.65606541     0.16760
O1460       O  0.79213334  0.32666465  0.58678041    -0.60160
H1461       H  0.90235498  0.31068764  0.60595251     0.16780
O1462       O  0.93231138  0.35523590  0.67653718    -0.60260
H1463       H  0.92180421  0.33094437  0.69553459     0.43770
H1464       H  0.76837349  0.30608003  0.60423620     0.43730
C1465       C  0.87789790  0.13667962  0.67223079    -0.05340
C1466       C  0.88034561  0.17473076  0.67287589    -0.32770
C1467       C  0.86785179  0.18793000  0.63719056     0.36480
C1468       C  0.85222875  0.16288768  0.59973483    -0.05690
C1469       C  0.85150159  0.12585724  0.59819219    -0.32660
C1470       C  0.86521437  0.11325845  0.63349278     0.36390
H1471       H  0.89153445  0.19425033  0.70146800     0.16760
O1472       O  0.87007700  0.22492631  0.63980709    -0.60160
H1473       H  0.84058807  0.10668260  0.56933069     0.16780
O1474       O  0.86461870  0.07724155  0.63006717    -0.60260
H1475       H  0.88796931  0.08357026  0.61089889     0.43770
H1476       H  0.84272787  0.21797058  0.65083952     0.43730
C1477       C  0.86675361  0.12220486  0.83227516    -0.05340
C1478       C  0.82433599  0.10506465  0.83921710    -0.32770
C1479       C  0.81083869  0.11619348  0.87554116     0.36480
C1480       C  0.84015995  0.14616378  0.90520622    -0.05690
C1481       C  0.88267626  0.16193926  0.89892056    -0.32660
C1482       C  0.89592753  0.14968126  0.86313855     0.36390
H1483       H  0.80156019  0.08338011  0.81593722     0.16760
O1484       O  0.76890808  0.09867093  0.88059946    -0.60160
H1485       H  0.90587136  0.18447353  0.92129320     0.16780
O1486       O  0.93761991  0.16656376  0.85727532    -0.60260
H1487       H  0.94448711  0.14868731  0.87362171     0.43770
H1488       H  0.75933608  0.07248243  0.89608371     0.43730
C1489       C  0.88022877  0.61372219  0.29117712     0.03260
C1490       C  0.90134274  0.59292144  0.29043301    -0.12890
C1491       C  0.91440318  0.58568532  0.25122897     0.00760
C1492       C  0.90778632  0.60067295  0.21282039    -0.11420
C1493       C  0.88618054  0.62119929  0.21283646     0.03250
C1494       C  0.87205332  0.62700656  0.25239697    -0.10840
H1495       H  0.90747299  0.58224186  0.32019628     0.08850
H1496       H  0.92022164  0.59675970  0.18330526     0.06370
H1497       H  0.85480629  0.64220739  0.25327823     0.06220
C1498       C  0.88768309  0.88797858  0.28801257     0.03260
C1499       C  0.87930320  0.86749106  0.24816605    -0.12890
C1500       C  0.88652780  0.88909160  0.20968659     0.00760
C1501       C  0.90273373  0.93169269  0.21087028    -0.11420
C1502       C  0.91196778  0.95278436  0.25046920     0.03250
C1503       C  0.90378281  0.93076910  0.28907323    -0.10840
H1504       H  0.86610164  0.83437507  0.24705619     0.08850
H1505       H  0.90923218  0.94861575  0.18105942     0.06370
H1506       H  0.91114273  0.94708916  0.31969014     0.06220
O1507       O  0.71948901  0.69185412  0.03336155    -0.85220
O1508       O  0.79422048  0.76165211  0.05318823    -0.82260
C1509       C  0.83290809  0.78563330  0.05794010     0.98240
O1510       O  0.85762797  0.78381785  0.03223207    -0.82300
O1511       O  0.85276765  0.71301189  0.05506929    -0.84940
C1512       C  0.83686630  0.67520392  0.06238568     1.02770
O1513       O  0.80844780  0.64801118  0.03773012    -0.77700
O1514       O  0.73946329  0.65097611  0.05666340    -0.77890
C1515       C  0.71726562  0.66617718  0.06052817     1.02720
O1516       O  0.74010368  0.70642663  0.44392680    -0.85220
O1517       O  0.81110675  0.78088517  0.46357223    -0.82280
C1518       C  0.83700301  0.78218581  0.43728546     0.98260
O1519       O  0.85074137  0.75887551  0.44249566    -0.82310
O1520       O  0.85370149  0.69113449  0.46582452    -0.84910
C1521       C  0.82693009  0.66224503  0.44131753     1.02740
O1522       O  0.78882828  0.64706786  0.44732146    -0.77730
O1523       O  0.71725161  0.64333099  0.46600098    -0.77880
C1524       C  0.71583055  0.66787729  0.43966251     1.02700
Cr1525     Cr  0.76823733  0.73311753  0.99855191     1.93740
Cr1526     Cr  0.84952439  0.73452261  0.49884959     1.93210
Cr1527     Cr  0.76571575  0.65150166  0.00188560     1.39100
O1528       O  0.79446285  0.70630052  0.49979325    -1.22970
C1529       C  0.61240840  0.61634151  0.28721748     0.03260
C1530       C  0.63390735  0.62691964  0.24834192    -0.12890
C1531       C  0.61234860  0.61857113  0.20898456     0.00760
C1532       C  0.56893171  0.59909379  0.20854992    -0.11420
C1533       C  0.54731478  0.58839059  0.24747931     0.03250
C1534       C  0.56915552  0.59739346  0.28673177    -0.10840
H1535       H  0.66745982  0.64184717  0.24872354     0.08850
H1536       H  0.55201471  0.59179031  0.17816990     0.06370
H1537       H  0.55241320  0.58896970  0.31677274     0.06220
O1538       O  0.61944220  0.82406969  0.44289945    -0.85220
O1539       O  0.69462466  0.89374292  0.46514657    -0.82260
C1540       C  0.69732295  0.92127992  0.44010440     0.98240
O1541       O  0.67435632  0.93526304  0.44549716    -0.82300
O1542       O  0.60685949  0.93875034  0.46625295    -0.84940
C1543       C  0.57950269  0.91310129  0.43965017     1.02770
O1544       O  0.56309231  0.87490532  0.44487355    -0.77700
O1545       O  0.55593341  0.80213680  0.46369654    -0.77890
C1546       C  0.58070254  0.80040630  0.43800320     1.02720
O1547       O  0.60111043  0.80125571  0.03180956    -0.85220
O1548       O  0.67170212  0.87383920  0.05445975    -0.82280
C1549       C  0.69660050  0.91191120  0.06097962     0.98260
O1550       O  0.69687130  0.93793337  0.03543445    -0.82310
O1551       O  0.62535699  0.93378820  0.05596815    -0.84910
C1552       C  0.58735250  0.91956920  0.06104632     1.02740
O1553       O  0.56071648  0.89288937  0.03468831    -0.77730
O1554       O  0.56216077  0.82371179  0.05417366    -0.77880
C1555       C  0.57543062  0.79996668  0.05852913     1.02700
Cr1556     Cr  0.64494642  0.85035040  0.49855087     1.93740
Cr1557     Cr  0.64868469  0.93241050  0.00068904     1.93210
Cr1558     Cr  0.56444867  0.85038354  0.99943490     1.39100
O1559       O  0.61933958  0.87769874  0.99934867    -1.22970
C1560       C  0.53234924  0.96796900  0.28873792     0.03260
C1561       C  0.54428816  0.95935352  0.24949602    -0.12890
C1562       C  0.53485115  0.97046807  0.21005284     0.00760
C1563       C  0.51350025  0.99111388  0.21009400    -0.11420
C1564       C  0.00120205  0.49969534  0.24910709     0.03270
C1565       C  0.51046726  0.98804428  0.28830028    -0.10840
H1566       H  0.56100268  0.94359394  0.24964448     0.08850
H1567       H  0.00686636  0.50104454  0.18012398     0.06370
H1568       H  0.00004821  0.49413621  0.31812619     0.06220
C1569       C  0.80391274  0.96962013  0.29261221     0.03260
C1570       C  0.84730768  0.48917184  0.29188837    -0.12890
C1571       C  0.86772480  0.49617106  0.25254021     0.00760
C1572       C  0.84462656  0.48290705  0.21383681    -0.11420
C1573       C  0.80111545  0.96249922  0.21432357     0.03250
C1574       C  0.78114234  0.95648215  0.25374287    -0.10840
H1575       H  0.86530201  0.49996634  0.32164186     0.08850
H1576       H  0.86053635  0.48855107  0.18349349     0.06370
H1577       H  0.74762186  0.94161810  0.25419674     0.06220
C1578       C  0.53088642  0.69658998  0.28675881     0.03260
C1579       C  0.53974195  0.71735783  0.24751549    -0.12890
C1580       C  0.53074600  0.69571766  0.20823841     0.00760
C1581       C  0.01277056  0.65271554  0.20853816    -0.11420
C1582       C  0.00360087  0.63168249  0.24777313     0.03250
C1583       C  0.01312203  0.65370340  0.28679812    -0.10840
H1584       H  0.55398454  0.75063692  0.24756785     0.08850
H1585       H  0.00435403  0.63539362  0.17848764     0.06370
H1586       H  0.00548602  0.63729376  0.31703363     0.06220
C1587       C  0.93641034  0.56335808  0.25045222     0.02420
C1588       C  0.91369287  0.51964813  0.25163373     0.02420
C1589       C  0.93495427  0.99864040  0.25099195     0.02420
C1590       C  0.97874045  0.52145408  0.24904274     0.02420
C1591       C  0.50134435  0.56499824  0.24746345     0.02420
C1592       C  0.98018133  0.58596080  0.24810601     0.02420
C1593       C  0.53869925  0.71855224  0.16743867    -0.05340
C1594       C  0.52431945  0.74535803  0.16276630    -0.32770
C1595       C  0.53521532  0.77127138  0.12725290     0.36480
C1596       C  0.56081820  0.77053848  0.09498953    -0.05690
C1597       C  0.57379634  0.74235285  0.09888438    -0.32660
C1598       C  0.56274183  0.71634494  0.13463057     0.36390
H1599       H  0.50522774  0.74692719  0.18744160     0.16760
O1600       O  0.52110336  0.79763471  0.12500485    -0.60160
H1601       H  0.59337340  0.74103471  0.07466838     0.16780
O1602       O  0.57787091  0.69094569  0.13857577    -0.60260
H1603       H  0.55976471  0.66674707  0.11959600     0.43770
H1604       H  0.54169258  0.82259343  0.14177700     0.43730
C1605       C  0.54038642  0.72011852  0.32755130    -0.05340
C1606       C  0.56907947  0.72081127  0.35681687    -0.32770
C1607       C  0.58166905  0.74613583  0.39361182     0.36480
C1608       C  0.56455353  0.77026559  0.40214005    -0.05690
C1609       C  0.53402028  0.76768100  0.37421699    -0.32660
C1610       C  0.52271397  0.74367743  0.33645579     0.36390
H1611       H  0.58281603  0.70280488  0.35028589     0.16760
O1612       O  0.61117068  0.74759911  0.42072777    -0.60160
H1613       H  0.52023690  0.78565275  0.38072891     0.16780
O1614       O  0.49393475  0.74287127  0.30870291    -0.60260
H1615       H  0.50927595  0.76911931  0.29256744     0.43770
H1616       H  0.59524207  0.72660253  0.44301255     0.43730
C1617       C  0.78144574  0.96248023  0.33347142    -0.05340
C1618       C  0.75323136  0.97524797  0.33729726    -0.32770
C1619       C  0.72666650  0.96329313  0.37241465     0.36480
C1620       C  0.72769573  0.93761160  0.40453856    -0.05690
C1621       C  0.75759706  0.92678441  0.40170837    -0.32660
C1622       C  0.78469369  0.93957861  0.36687050     0.36390
H1623       H  0.75099159  0.99368267  0.31224731     0.16760
O1624       O  0.69928775  0.97626181  0.37431884    -0.60160
H1625       H  0.75962741  0.90776641  0.42617174     0.16780
O1626       O  0.81252390  0.92737500  0.36444105    -0.60260
H1627       H  0.83619879  0.94690627  0.38344054     0.43770
H1628       H  0.67460234  0.95559389  0.35715985     0.43730
C1629       C  0.72525869  0.92523367  0.09883524    -0.05340
C1630       C  0.71720949  0.89635199  0.13134841    -0.32770
C1631       C  0.74215260  0.90783098  0.16858234     0.36480
C1632       C  0.77617655  0.94868108  0.17380922    -0.05690
C1633       C  0.78500625  0.97716176  0.14099473    -0.32660
C1634       C  0.76006319  0.96588856  0.10368588     0.36390
H1635       H  0.69096768  0.86474102  0.12840347     0.16760
O1636       O  0.73363192  0.87870144  0.19930319    -0.60160
H1637       H  0.81068302  0.50854069  0.14507772     0.16780
O1638       O  0.76978944  0.99497703  0.07260966    -0.60260
H1639       H  0.78877410  0.49255047  0.05294383     0.43770
H1640       H  0.70834984  0.87382901  0.21390988     0.43730
C1641       C  0.56605861  0.92720790  0.40213480    -0.05340
C1642       C  0.57213457  0.96687609  0.40168698    -0.32770
C1643       C  0.55970407  0.98025066  0.36580912     0.36480
C1644       C  0.54180684  0.95409774  0.32936240    -0.05690
C1645       C  0.53525296  0.91438667  0.33033668    -0.32660
C1646       C  0.54719076  0.90092945  0.36590322     0.36390
H1647       H  0.58657333  0.98758468  0.42910810     0.16760
O1648       O  0.56724933  0.01958479  0.36579113    -0.60160
H1649       H  0.52136441  0.89366666  0.30282841     0.16780
O1650       O  0.54109919  0.86218737  0.36422423    -0.60260
H1651       H  0.56683305  0.86614885  0.35165137     0.43770
H1652       H  0.54589155  0.51858939  0.38474459     0.43730
C1653       C  0.54852208  0.96073422  0.16961605    -0.05340
C1654       C  0.58877010  0.96802487  0.16825312    -0.32770
C1655       C  0.60196277  0.95573447  0.13287290     0.36480
C1656       C  0.57445426  0.93485225  0.09779233    -0.05690
C1657       C  0.53448080  0.92855587  0.09844470    -0.32660
C1658       C  0.52164837  0.94192132  0.13371427     0.36390
H1659       H  0.61026958  0.98325371  0.19508357     0.16760
O1660       O  0.64128970  0.96264231  0.13405037    -0.60160
H1661       H  0.51299953  0.91306645  0.07167799     0.16780
O1662       O  0.98210571  0.93438113  0.13374265    -0.60260
H1663       H  0.98276853  0.95507274  0.11401419     0.43770
H1664       H  0.65980925  0.99158317  0.12448283     0.43730
C1665       C  0.68804437  0.65350097  0.09669492    -0.05340
C1666       C  0.66787525  0.61271104  0.11172728    -0.32770
C1667       C  0.64137477  0.60058044  0.14700403     0.36480
C1668       C  0.63569052  0.62954593  0.16856377    -0.05690
C1669       C  0.65533247  0.67013365  0.15344385    -0.32660
C1670       C  0.68091110  0.68208962  0.11735872     0.36390
H1671       H  0.67264219  0.59019128  0.09606433     0.16760
O1672       O  0.62207837  0.56064839  0.16104190    -0.60160
H1673       H  0.65145021  0.69277375  0.17018328     0.16780
O1674       O  0.70087153  0.72243108  0.10426586    -0.60260
H1675       H  0.68032153  0.72403605  0.08583957     0.43770
H1676       H  0.59419365  0.54630317  0.14697562     0.43730
C1677       C  0.63555594  0.62655099  0.32835621    -0.05340
C1678       C  0.64180858  0.66044104  0.35252271    -0.32770
C1679       C  0.66673491  0.67325125  0.38975182     0.36480
C1680       C  0.68553629  0.65175119  0.40351210    -0.05690
C1681       C  0.67761593  0.61654236  0.38034693    -0.32660
C1682       C  0.65331075  0.60430138  0.34249239     0.36390
H1683       H  0.62838039  0.67778420  0.34166570     0.16760
O1684       O  0.67315215  0.70730540  0.41204099    -0.60160
H1685       H  0.69180702  0.59967380  0.39049292     0.16780
O1686       O  0.64715735  0.57073126  0.31942381    -0.60260
H1687       H  0.67088518  0.58194034  0.29946518     0.43770
H1688       H  0.65149729  0.69617151  0.43445507     0.43730
C1689       C  0.87800934  0.86384872  0.32813701    -0.05340
C1690       C  0.84960487  0.86317626  0.35688275    -0.32770
C1691       C  0.83655325  0.83759902  0.39296857     0.36480
C1692       C  0.85180894  0.81153723  0.40070024    -0.05690
C1693       C  0.88103584  0.81292855  0.37213444    -0.32660
C1694       C  0.89408160  0.83875655  0.33620201     0.36390
H1695       H  0.83621546  0.88133577  0.35019392     0.16760
O1696       O  0.80762125  0.83722037  0.41930965    -0.60160
H1697       H  0.89350418  0.79351317  0.37719330     0.16780
O1698       O  0.92193059  0.83866049  0.30859479    -0.60260
H1699       H  0.94928816  0.85558208  0.32331823     0.43770
H1700       H  0.82391778  0.86031101  0.44012706     0.43730
C1701       C  0.87582967  0.86639817  0.16839383    -0.05340
C1702       C  0.84094329  0.85945523  0.14499401    -0.32770
C1703       C  0.82704229  0.83374071  0.10844237     0.36480
C1704       C  0.84909541  0.81579674  0.09399029    -0.05690
C1705       C  0.88520908  0.82443455  0.11639920    -0.32660
C1706       C  0.89807295  0.84880885  0.15397387     0.36390
H1707       H  0.82351742  0.87272401  0.15606699     0.16760
O1708       O  0.79212248  0.82665497  0.08678658    -0.60160
H1709       H  0.90234883  0.81068222  0.10593873     0.16780
O1710       O  0.93231524  0.85523486  0.17651917    -0.60260
H1711       H  0.92181019  0.83094581  0.19551987     0.43770
H1712       H  0.76836579  0.80607300  0.10424761     0.43730
C1713       C  0.87788513  0.63667731  0.17223546    -0.05340
C1714       C  0.88032853  0.67472636  0.17287931    -0.32770
C1715       C  0.86783263  0.68792263  0.13719326     0.36480
C1716       C  0.85221200  0.66287946  0.09973795    -0.05690
C1717       C  0.85148837  0.62585087  0.09819672    -0.32660
C1718       C  0.86520324  0.61325509  0.13349807     0.36390
H1719       H  0.89151599  0.69424682  0.20147081     0.16760
O1720       O  0.87005387  0.72491707  0.13980844    -0.60160
H1721       H  0.84057665  0.60667573  0.06933554     0.16780
O1722       O  0.86461178  0.57724032  0.13007357    -0.60260
H1723       H  0.88796237  0.58357061  0.11090452     0.43770
H1724       H  0.84270345  0.71795884  0.15083936     0.43730
C1725       C  0.86674724  0.62220893  0.33228052    -0.05340
C1726       C  0.82432950  0.60506697  0.33922365    -0.32770
C1727       C  0.81083225  0.61619687  0.37554690     0.36480
C1728       C  0.84015358  0.64616967  0.40520996    -0.05690
C1729       C  0.88267012  0.66194686  0.39892331    -0.32660
C1730       C  0.89592147  0.64968821  0.36314194     0.36390
H1731       H  0.80155358  0.58338046  0.31594512     0.16760
O1732       O  0.76890155  0.59867275  0.38060636    -0.60160
H1733       H  0.90586533  0.68448329  0.42129435     0.16780
O1734       O  0.93761404  0.66657312  0.35727706    -0.60260
H1735       H  0.94448350  0.64869824  0.37362319     0.43770
H1736       H  0.75933158  0.57248617  0.39609367     0.43730
C1737       C  0.88022748  0.61372093  0.79117236     0.03260
C1738       C  0.90134071  0.59291954  0.79042804    -0.12890
C1739       C  0.91440254  0.58568480  0.75122425     0.00760
C1740       C  0.90778725  0.60067403  0.71281585    -0.11420
C1741       C  0.88618255  0.62120151  0.71283225     0.03250
C1742       C  0.87205423  0.62700765  0.75239260    -0.10840
H1743       H  0.90746962  0.58223861  0.82019114     0.08850
H1744       H  0.92022288  0.59676123  0.68330068     0.06370
H1745       H  0.85480810  0.64220942  0.75327400     0.06220
C1746       C  0.88768613  0.88797898  0.78801999     0.03260
C1747       C  0.87930658  0.86749182  0.74817325    -0.12890
C1748       C  0.88653014  0.88909246  0.70969407     0.00760
C1749       C  0.90273464  0.93169310  0.71087804    -0.11420
C1750       C  0.91196874  0.95278466  0.75047684     0.03250
C1751       C  0.90378483  0.93076946  0.78908096    -0.10840
H1752       H  0.86610578  0.83437597  0.74706300     0.08850
H1753       H  0.90923221  0.94861610  0.68106723     0.06370
H1754       H  0.91114459  0.94708937  0.81969792     0.06220
O1755       O  0.71949400  0.69186539  0.53336217    -0.85220
O1756       O  0.79422593  0.76166233  0.55318905    -0.82260
C1757       C  0.83291350  0.78564285  0.55794157     0.98240
O1758       O  0.85763347  0.78382799  0.53223313    -0.82300
O1759       O  0.85277269  0.71302159  0.55506991    -0.84940
C1760       C  0.83687131  0.67521343  0.56238539     1.02770
O1761       O  0.80845216  0.64802126  0.53772993    -0.77700
O1762       O  0.73946839  0.65098744  0.55666371    -0.77890
C1763       C  0.71727009  0.66618783  0.56052834     1.02720
O1764       O  0.74009837  0.70641476  0.94392630    -0.85220
O1765       O  0.81110078  0.78087415  0.96357146    -0.82280
C1766       C  0.83699821  0.78217620  0.93728540     0.98260
O1767       O  0.85073631  0.75886557  0.94249488    -0.82310
O1768       O  0.85369692  0.69112471  0.96582398    -0.84910
C1769       C  0.82692577  0.66223536  0.94131674     1.02740
O1770       O  0.78882387  0.64705703  0.94732127    -0.77730
O1771       O  0.71724683  0.64331916  0.96600046    -0.77880
C1772       C  0.71582568  0.66786534  0.93966196     1.02700
Cr1773     Cr  0.76824280  0.73312872  0.49855260     1.93740
Cr1774     Cr  0.84951929  0.73451250  0.99884886     1.93210
Cr1775     Cr  0.76572039  0.65151262  0.50188584     1.39100
O1776       O  0.79445775  0.70628975  0.99979271    -1.22970
C1777       C  0.61240739  0.61633554  0.78721488     0.03260
C1778       C  0.63390675  0.62691602  0.74833950    -0.12890
C1779       C  0.61234866  0.61857250  0.70898229     0.00760
C1780       C  0.56893192  0.59909718  0.70854761    -0.11420
C1781       C  0.54731460  0.58839069  0.74747690     0.03250
C1782       C  0.56915482  0.59738925  0.78672912    -0.10840
H1783       H  0.66745905  0.64184219  0.74872118     0.08850
H1784       H  0.55201529  0.59179692  0.67816765     0.06370
H1785       H  0.55241221  0.58896350  0.81676997     0.06220
O1786       O  0.61944017  0.82406423  0.94289950    -0.85220
O1787       O  0.69462245  0.89373733  0.96514679    -0.82260
C1788       C  0.69732076  0.92127437  0.94010464     0.98240
O1789       O  0.67435402  0.93525738  0.94549734    -0.82300
O1790       O  0.60685746  0.93874511  0.96625331    -0.84940
C1791       C  0.57950086  0.91309651  0.93965013     1.02770
O1792       O  0.56309051  0.87490045  0.94487282    -0.77700
O1793       O  0.55593119  0.80213160  0.96369571    -0.77890
C1794       C  0.58070055  0.80040123  0.93800258     1.02720
O1795       O  0.60111302  0.80126127  0.53180948    -0.85220
O1796       O  0.67170475  0.87384495  0.55445936    -0.82280
C1797       C  0.69660295  0.91191695  0.56097953     0.98260
O1798       O  0.69687364  0.93793921  0.53543455    -0.82310
O1799       O  0.62535939  0.93379409  0.55596807    -0.84910
C1800       C  0.58735488  0.91957468  0.56104666     1.02740
O1801       O  0.56071880  0.89289471  0.53468883    -0.77730
O1802       O  0.56216364  0.82371740  0.55417436    -0.77880
C1803       C  0.57543310  0.79997190  0.55852913     1.02700
Cr1804     Cr  0.64494404  0.85034477  0.99855104     1.93740
Cr1805     Cr  0.64868695  0.93241614  0.50068892     1.93210
Cr1806     Cr  0.56445102  0.85038888  0.49943558     1.39100
O1807       O  0.61934193  0.87770432  0.49934880    -1.22970
C1808       C  0.53234950  0.96796861  0.78873997     0.03260
C1809       C  0.54428912  0.95935435  0.74949785    -0.12890
C1810       C  0.53485270  0.97047006  0.71005510     0.00760
C1811       C  0.51350178  0.99111581  0.71009692    -0.11420
C1812       C  0.00120263  0.49969581  0.74911021     0.03270
C1813       C  0.51046739  0.98804378  0.78830305    -0.10840
H1814       H  0.56100364  0.94359475  0.74964581     0.08850
H1815       H  0.00686813  0.50104711  0.68012716     0.06370
H1816       H  0.00004785  0.49413467  0.81812917     0.06220
C1817       C  0.80391243  0.96961807  0.79261354     0.03260
C1818       C  0.84730736  0.48916961  0.79188999    -0.12890
C1819       C  0.86772491  0.49617081  0.75254179     0.00760
C1820       C  0.84462714  0.48290921  0.71383803    -0.11420
C1821       C  0.80111619  0.96250134  0.71432454     0.03250
C1822       C  0.78114254  0.95648200  0.75374382    -0.10840
H1823       H  0.86530140  0.49996276  0.82164373     0.08850
H1824       H  0.86053725  0.48855491  0.68349468     0.06370
H1825       H  0.74762201  0.94161771  0.75419729     0.06220
C1826       C  0.53088577  0.69658906  0.78675510     0.03260
C1827       C  0.53974107  0.71735757  0.74751224    -0.12890
C1828       C  0.53074515  0.69571806  0.70823471     0.00760
C1829       C  0.01276978  0.65271590  0.70853356    -0.11420
C1830       C  0.00360027  0.63168226  0.74776817     0.03250
C1831       C  0.01312157  0.65370258  0.78679354    -0.10840
H1832       H  0.55398356  0.75063665  0.74756534     0.08850
H1833       H  0.00435331  0.63539448  0.67848273     0.06370
H1834       H  0.00548576  0.63729247  0.81702876     0.06220
C1835       C  0.93640994  0.56335777  0.75044837     0.02420
C1836       C  0.91369296  0.51964804  0.75163548     0.02420
C1837       C  0.93495483  0.99864068  0.75099810     0.02420
C1838       C  0.97874075  0.52145433  0.74904609     0.02420
C1839       C  0.50134419  0.56499825  0.74746138     0.02420
C1840       C  0.98018087  0.58596058  0.74810097     0.02420
C1841       C  0.53869877  0.71855357  0.66743556    -0.05340
C1842       C  0.52431939  0.74535980  0.66276411    -0.32770
C1843       C  0.53521629  0.77127450  0.62725174     0.36480
C1844       C  0.56081984  0.77054259  0.59498854    -0.05690
C1845       C  0.57379746  0.74235647  0.59888234    -0.32660
C1846       C  0.56274185  0.71634716  0.63462743     0.36390
H1847       H  0.50522729  0.74692828  0.68743941     0.16760
O1848       O  0.52110465  0.79763812  0.62500453    -0.60160
H1849       H  0.59337489  0.74103896  0.57466635     0.16780
O1850       O  0.57787030  0.69094731  0.63857161    -0.60260
H1851       H  0.55976424  0.66674948  0.61959087     0.43770
H1852       H  0.54169358  0.82259619  0.64177772     0.43730
C1853       C  0.54038571  0.72011672  0.82754815    -0.05340
C1854       C  0.56907920  0.72080934  0.85681297    -0.32770
C1855       C  0.58166826  0.74613266  0.89360882     0.36480
C1856       C  0.56455187  0.77026139  0.90213862    -0.05690
C1857       C  0.53401835  0.76767702  0.87421613    -0.32660
C1858       C  0.52271244  0.74367458  0.83645414     0.36390
H1859       H  0.58281649  0.70280382  0.85028073     0.16760
O1860       O  0.61117024  0.74759580  0.92072409    -0.60160
H1861       H  0.52023449  0.78564816  0.88072910     0.16780
O1862       O  0.49393286  0.74286856  0.80870192    -0.60260
H1863       H  0.50927378  0.76911684  0.79256681     0.43770
H1864       H  0.59524195  0.72659809  0.94300802     0.43730
C1865       C  0.78144481  0.96247695  0.83347257    -0.05340
C1866       C  0.75323002  0.97524416  0.83729852    -0.32770
C1867       C  0.72666457  0.96328831  0.87241544     0.36480
C1868       C  0.72769377  0.93760646  0.90453900    -0.05690
C1869       C  0.75759543  0.92677971  0.90170876    -0.32660
C1870       C  0.78469256  0.93957479  0.86687120     0.36390
H1871       H  0.75099036  0.99367924  0.81224894     0.16760
O1872       O  0.69928530  0.97625635  0.87431951    -0.60160
H1873       H  0.75962571  0.90776145  0.92617185     0.16780
O1874       O  0.81252309  0.92737161  0.86444160    -0.60260
H1875       H  0.83619756  0.94690251  0.88344176     0.43770
H1876       H  0.67460021  0.95558836  0.85716015     0.43730
C1877       C  0.72526093  0.92523910  0.59883540    -0.05340
C1878       C  0.71721343  0.89635589  0.63134632    -0.32770
C1879       C  0.74215608  0.90783404  0.66858046     0.36480
C1880       C  0.77617781  0.94868487  0.67380997    -0.05690
C1881       C  0.78500565  0.97716750  0.64099813    -0.32660
C1882       C  0.76006319  0.96589502  0.60368880     0.36390
H1883       H  0.69097332  0.86474423  0.62839946     0.16760
O1884       O  0.73363700  0.87870309  0.69929907    -0.60160
H1885       H  0.81068019  0.50854728  0.64508365     0.16780
O1886       O  0.76978764  0.99498516  0.57261503    -0.60260
H1887       H  0.78877459  0.49256268  0.55294891     0.43770
H1888       H  0.70835481  0.87382890  0.71390704     0.43730
C1889       C  0.56605703  0.92720398  0.90213528    -0.05340
C1890       C  0.57213416  0.96687269  0.90168826    -0.32770
C1891       C  0.55970434  0.98024843  0.86581089     0.36480
C1892       C  0.54180645  0.95409612  0.82936389    -0.05690
C1893       C  0.53525143  0.91438457  0.83033726    -0.32660
C1894       C  0.54718859  0.90092617  0.86590336     0.36390
H1895       H  0.58657347  0.98758085  0.92910959     0.16760
O1896       O  0.56725102  0.01958310  0.86579352    -0.60160
H1897       H  0.52136240  0.89366515  0.80282860     0.16780
O1898       O  0.54109578  0.86218360  0.86422365    -0.60260
H1899       H  0.56682918  0.86614439  0.85165030     0.43770
H1900       H  0.54589268  0.51858766  0.88474695     0.43730
C1901       C  0.54852391  0.96073720  0.66961795    -0.05340
C1902       C  0.58877211  0.96802838  0.66825465    -0.32770
C1903       C  0.60196510  0.95573908  0.63287378     0.36480
C1904       C  0.57445659  0.93485716  0.59779312    -0.05690
C1905       C  0.53448286  0.92856008  0.59844602    -0.32660
C1906       C  0.52165017  0.94192456  0.63371616     0.36390
H1907       H  0.61027148  0.98325682  0.69508527     0.16760
O1908       O  0.64129232  0.96264764  0.63405067    -0.60160
H1909       H  0.51300154  0.91307076  0.57167932     0.16780
O1910       O  0.98210719  0.93438351  0.63374516    -0.60260
H1911       H  0.98276942  0.95507521  0.61401731     0.43770
H1912       H  0.65981142  0.99158871  0.62448353     0.43730
C1913       C  0.68804705  0.65350911  0.59669400    -0.05340
C1914       C  0.66788558  0.61272082  0.61173015    -0.32770
C1915       C  0.64138441  0.60058777  0.64700638     0.36480
C1916       C  0.63569099  0.62954912  0.66856163    -0.05690
C1917       C  0.65532479  0.67013501  0.65343780    -0.32660
C1918       C  0.68090461  0.68209339  0.61735331     0.36390
H1919       H  0.67265929  0.59020414  0.59607075     0.16760
O1920       O  0.62209592  0.56065740  0.66104788    -0.60160
H1921       H  0.65143583  0.69277215  0.67017409     0.16780
O1922       O  0.70085725  0.72243341  0.60425693    -0.60260
H1923       H  0.68030397  0.72403143  0.58582909     0.43770
H1924       H  0.59420959  0.54630691  0.64698487     0.43730
C1925       C  0.63555408  0.62654268  0.82835391    -0.05340
C1926       C  0.64180275  0.66042922  0.85252415    -0.32770
C1927       C  0.66672775  0.67323768  0.88975405     0.36480
C1928       C  0.68553172  0.65173933  0.90351144    -0.05690
C1929       C  0.67761485  0.61653337  0.88034290    -0.32660
C1930       C  0.65331087  0.60429413  0.84248751     0.36390
H1931       H  0.62837245  0.67777113  0.84166952     0.16760
O1932       O  0.67314135  0.70728869  0.91204685    -0.60160
H1933       H  0.69180774  0.59966599  0.89048697     0.16780
O1934       O  0.64716006  0.57072649  0.81941601    -0.60260
H1935       H  0.67088877  0.58193819  0.79945828     0.43770
H1936       H  0.65148535  0.69615128  0.93445979     0.43730
C1937       C  0.87801193  0.86384815  0.82814393    -0.05340
C1938       C  0.84960476  0.86317256  0.85688810    -0.32770
C1939       C  0.83655056  0.83759219  0.89297156     0.36480
C1940       C  0.85180626  0.81153027  0.90070239    -0.05690
C1941       C  0.88103595  0.81292482  0.87213843    -0.32660
C1942       C  0.89408452  0.83875617  0.83620843     0.36390
H1943       H  0.83621492  0.88133171  0.85019952     0.16760
O1944       O  0.80761587  0.83721048  0.91931085    -0.60160
H1945       H  0.89350441  0.79350948  0.87719680     0.16780
O1946       O  0.92193587  0.83866298  0.80860236    -0.60260
H1947       H  0.94929002  0.85556754  0.82333682     0.43770
H1948       H  0.82391029  0.86029928  0.94013080     0.43730
C1949       C  0.87583205  0.86639997  0.66840092    -0.05340
C1950       C  0.84094642  0.85945876  0.64500099    -0.32770
C1951       C  0.82704667  0.83374707  0.60844735     0.36480
C1952       C  0.84910039  0.81580437  0.59399337    -0.05690
C1953       C  0.88521335  0.82444047  0.61640258    -0.32660
C1954       C  0.89807596  0.84881193  0.65397922     0.36390
H1955       H  0.82352031  0.87272689  0.65607519     0.16760
O1956       O  0.79212736  0.82666275  0.58679163    -0.60160
H1957       H  0.90235346  0.81068897  0.60594068     0.16780
O1958       O  0.93231788  0.85523683  0.67652440    -0.60260
H1959       H  0.92181253  0.83094668  0.69552352     0.43770
H1960       H  0.76837017  0.80607752  0.60424990     0.43730
C1961       C  0.87788929  0.63668190  0.67223180    -0.05340
C1962       C  0.88033572  0.67473242  0.67287681    -0.32770
C1963       C  0.86784072  0.68793065  0.63719164     0.36480
C1964       C  0.85221765  0.66288783  0.59973626    -0.05690
C1965       C  0.85149165  0.62585800  0.59819369    -0.32660
C1966       C  0.86520578  0.61326032  0.63349405     0.36390
H1967       H  0.89152453  0.69425229  0.70146872     0.16760
O1968       O  0.87006502  0.72492653  0.63980790    -0.60160
H1969       H  0.84057828  0.60668315  0.56933234     0.16780
O1970       O  0.86461168  0.57724422  0.63006841    -0.60260
H1971       H  0.88796219  0.58357365  0.61089964     0.43770
H1972       H  0.84271585  0.71797032  0.65084066     0.43730
C1973       C  0.86674501  0.62220614  0.83227591    -0.05340
C1974       C  0.82432709  0.60506322  0.83921877    -0.32770
C1975       C  0.81082908  0.61619063  0.87554332     0.36480
C1976       C  0.84014985  0.64616192  0.90520790    -0.05690
C1977       C  0.88266657  0.66194010  0.89892125    -0.32660
C1978       C  0.89591866  0.64968388  0.86313862     0.36390
H1979       H  0.80155163  0.58337774  0.81593926     0.16760
O1980       O  0.76889824  0.59866564  0.88060266    -0.60160
H1981       H  0.90586137  0.68447545  0.92129336     0.16780
O1982       O  0.93761140  0.66656955  0.85727399    -0.60260
H1983       H  0.94448089  0.64869392  0.87361856     0.43770
H1984       H  0.75932843  0.57247813  0.89608801     0.43730
loop_ 
_geom_bond_atom_site_label_1 
_geom_bond_atom_site_label_2 
_geom_bond_distance 
_geom_bond_site_symmetry_2 
_ccdc_geom_bond_type 
C1            C2   1.399       .  A
C1            C6   1.403       .  A
C1          C237   1.478       .  S
C2            C3   1.401       .  A
C2            H7   1.084       .  S
C3            C4   1.402       .  A
C3           C99   1.479       .  S
C4            C5   1.406       .  A
C4            H8   1.081       .  S
C5            C6   1.409       .  A
C5          C225   1.495       .  S
C6            H9   1.083       .  S
C10          C11   1.401       .  A
C10          C15   1.407       .  A
C10         C201   1.482       .  S
C11          C12   1.399       .  A
C11          H16   1.084       .  S
C12          C13   1.400       .  A
C12         C213   1.471       .  S
C13          C14   1.402       .  A
C13          H17   1.084       .  S
C14          C15   1.406       .  A
C14         C101   1.483       .  S
C15          H18   1.084       .  S
O19         Cr37   2.007   1_554  S
O19          C27   1.265       .  A
O20         Cr37   1.960   1_554  S
O20          C21   1.257       .  A
C21         C216   1.476       .  S
C21          O22   1.269       .  A
O22        Cr286   2.019   1_554  S
O23        Cr286   1.963   1_554  S
O23          C24   1.256       .  A
C24         C228   1.480       .  S
C24          O25   1.269       .  A
O25         Cr39   2.022       .  S
O26         Cr39   1.976       .  S
O26          C27   1.260       .  A
C27         C177   1.479       .  S
O28        Cr285   1.961       .  S
O28          C36   1.259       .  A
O29        Cr285   2.012       .  S
O29          C30   1.266       .  A
C30         C204   1.488       .  S
C30          O31   1.260       .  A
O31         Cr38   1.975       .  S
O32         Cr38   2.024       .  S
O32          C33   1.269       .  A
C33         C240   1.491       .  S
C33          O34   1.257       .  A
O34        Cr287   1.965       .  S
O35        Cr287   2.018       .  S
O35          C36   1.269       .  A
C36         C192   1.475       .  S
Cr37        O276   1.961       .  S
Cr37        O277   2.012       .  S
Cr37        O288   1.770       .  S
Cr38        O270   2.019       .  S
Cr38        O271   1.963       .  S
Cr38         O40   1.771       .  S
Cr39        O282   1.965   1_554  S
Cr39        O283   2.018   1_554  S
Cr39        O288   1.773   1_554  S
O40        Cr285   1.770       .  S
O40        Cr287   1.773       .  S
C41          C42   1.401       .  A
C41          C46   1.399       .  A
C41         C189   1.471       .  S
C42          C43   1.401       .  A
C42          H47   1.084       .  S
C43          C44   1.402       .  A
C43         C180   1.473       .  S
C44          C45   1.404       .  A
C44          H48   1.084       .  S
C45          C46   1.401       .  A
C45         C103   1.478       .  S
C46          H49   1.084       .  S
O50         Cr68   1.961       .  S
O50          C58   1.258       .  A
O51         Cr68   2.027       .  S
O51          C52   1.271       .  A
C52         C132   1.485       .  S
C52          O53   1.255       .  A
O53        Cr317   1.956       .  S
O54        Cr317   2.026       .  S
O54          C55   1.270       .  A
C55         C153   1.481       .  S
C55          O56   1.256       .  A
O56        Cr318   1.953       .  S
O57        Cr318   2.018       .  S
O57          C58   1.269       .  A
C58         C120   1.471       .  S
O59        Cr316   2.020   1_554  S
O59          C67   1.269       .  A
O60        Cr316   1.957   1_554  S
O60          C61   1.256       .  A
C61         C141   1.484       .  S
C61          O62   1.270       .  A
O62         Cr69   2.026       .  S
O63         Cr69   1.954       .  S
O63          C64   1.255       .  A
C64         C168   1.482       .  S
C64          O65   1.268       .  A
O65         Cr70   2.022   1_554  S
O66         Cr70   1.964   1_554  S
O66          C67   1.258       .  A
C67         C108   1.487       .  S
Cr68        O307   2.020       .  S
Cr68        O308   1.957       .  S
Cr68        O319   1.768       .  S
Cr69        O301   1.956   1_554  S
Cr69        O302   2.026   1_554  S
Cr69         O71   1.768   1_554  S
Cr70        O304   1.953       .  S
Cr70        O305   2.018       .  S
Cr70         O71   1.766       .  S
O71        Cr316   1.768       .  S
C72          C73   1.403       .  A
C72          C77   1.400       .  A
C72         C156   1.483       .  S
C73          C74   1.402       .  A
C73          H78   1.083       .  S
C74          C75   1.401       .  A
C74         C165   1.484       .  S
C75        C1564   1.402       .  A
C75        H1567   1.083       .  S
C76        C1563   1.402       .  A
C76        C1565   1.402       .  A
C76         C102   1.475   1_565  S
C77        C1564   1.402       .  A
C77        H1568   1.083       .  S
H79        C1563   1.083   1_545  S
H80        C1565   1.083       .  S
C81          C86   1.403       .  A
C81         C578   1.402       .  A
C81         C129   1.480       .  S
C82          C83   1.403       .  A
C82         C577   1.402       .  A
C82          H87   1.083       .  S
C83          C84   1.403       .  A
C83         C100   1.479   1_565  S
C84         C581   1.403       .  A
C84          H88   1.084       .  S
C85          C86   1.401       .  A
C85         C580   1.403       .  A
C85         C144   1.482       .  S
C86          H89   1.084       .  S
C90          C91   1.400       .  A
C90        C1087   1.400       .  A
C90         C117   1.476       .  S
C91          C92   1.403       .  A
C91          H96   1.084       .  S
C92        C1085   1.403       .  A
C92         C105   1.481       .  S
C93          C94   1.403       .  A
C93        C1084   1.403       .  A
C93          H97   1.083       .  S
C94          C95   1.402       .  A
C94         C104   1.478       .  S
C95        C1082   1.400       .  A
C95          H98   1.084       .  S
C99         C100   1.414       .  A
C99         C104   1.410       .  A
C100        C597   1.410   1_545  A
C101        C596   1.410       .  A
C101        C598   1.411       .  A
C102        C597   1.411   1_545  A
C102       C1095   1.409       .  A
C103       C1094   1.409   1_455  A
C103       C1096   1.406   1_455  A
C104       C1095   1.406       .  A
C105        C106   1.402       .  A
C105        C110   1.408       .  A
C106        C107   1.396       .  A
C106        H111   1.084       .  S
C107        C108   1.415       .  A
C107        O112   1.372       .  S
C108        C109   1.408       .  A
C109        C110   1.403       .  A
C109        H113   1.083       .  S
C110        O114   1.372       .  S
O112        H116   0.992       .  S
O114        H115   0.992       .  S
C117        C118   1.401       .  A
C117        C122   1.409       .  A
C118        C119   1.399       .  A
C118        H123   1.082       .  S
C119        C120   1.409       .  A
C119        O124   1.372       .  S
C120        C121   1.401       .  A
C121        C122   1.400       .  A
C121        H125   1.082       .  S
C122        O126   1.372   1_455  S
O124        H128   0.992       .  S
O126        H127   0.992   1_655  S
C129        C130   1.401       .  A
C129        C134   1.406       .  A
C130        C131   1.398       .  A
C130        H135   1.084       .  S
C131        C132   1.417       .  A
C131        O136   1.372       .  S
C132        C133   1.405       .  A
C133        C134   1.401       .  A
C133        H137   1.083       .  S
C134        O138   1.367       .  S
O136        H140   0.992       .  S
O138        H139   0.992       .  S
C141        C142   1.409       .  A
C141        C146   1.410       .  A
C142        C143   1.399       .  A
C142        H147   1.083       .  S
C143        C144   1.405       .  A
C143        O148   1.373       .  S
C144        C145   1.401       .  A
C145        C146   1.401       .  A
C145        H645   1.074       .  S
C146        O150   1.371       .  S
O148        H152   0.992       .  S
H149        C641   1.074   1_545  S
O150        H647   0.992       .  S
H151        O646   0.992       .  S
C153        C154   1.406       .  A
C153        C158   1.412       .  A
C154        C155   1.406       .  A
C154        H159   1.083       .  S
C155        C156   1.411       .  A
C155        O160   1.371       .  S
C156        C157   1.401       .  A
C157        C158   1.390       .  A
C157        H161   1.084       .  S
C158        O162   1.371       .  S
O160        H660   0.992       .  S
O162        H163   0.991       .  S
H164        O656   0.992       .  S
C165        C166   1.402       .  A
C165        C170   1.410       .  A
C166        C167   1.392       .  A
C166        H171   1.084       .  S
C167        C168   1.412       .  A
C167        O172   1.372       .  S
C168        C169   1.406       .  A
C169        C170   1.404       .  A
C169        H173   1.083       .  S
C170       O1166   1.371   1_455  S
O172        H176   0.992       .  S
O174       C1162   1.371       .  S
O174        H175   0.992       .  S
C177        C178   1.405       .  A
C177        C182   1.411       .  A
C178        C179   1.400       .  A
C178        H183   1.084       .  S
C179        C180   1.404       .  A
C179        O184   1.369       .  S
C180        C181   1.400       .  A
C181        C182   1.401       .  A
C181        H185   1.084       .  S
C182        O186   1.371       .  S
O184        H188   0.991       .  S
O186        H187   0.991       .  S
C189        C190   1.399       .  A
C189        C194   1.407       .  A
C190        C191   1.397       .  A
C190        H195   1.082       .  S
C191        C192   1.411       .  A
C191        O196   1.372       .  S
C192        C193   1.405       .  A
C193        C194   1.402       .  A
C193        H197   1.084       .  S
C194        O198   1.372       .  S
O196        H200   0.992       .  S
O198        H199   0.992       .  S
C201        C202   1.398       .  A
C201        C206   1.406       .  A
C202        C203   1.400       .  A
C202        H207   1.076       .  S
C203        C204   1.414       .  A
C203        O208   1.372       .  S
C204        C205   1.408       .  A
C205        C206   1.401       .  A
C205        H209   1.083       .  S
C206        O210   1.371       .  S
O208        H212   0.992       .  S
O210        H211   0.989       .  S
C213        C214   1.400       .  A
C213        C218   1.407       .  A
C214        C215   1.399       .  A
C214        H219   1.084       .  S
C215        C216   1.412       .  A
C215        O220   1.372       .  S
C216        C217   1.404       .  A
C217        C218   1.400       .  A
C217        H221   1.084       .  S
C218        O222   1.372       .  S
O220        H224   0.992       .  S
O222        H223   0.991       .  S
C225        C226   1.406       .  A
C225        C230   1.414       .  A
C226        C227   1.399       .  A
C226        H231   1.083       .  S
C227        C228   1.411       .  A
C227        O232   1.372       .  S
C228        C229   1.401       .  A
C229        C230   1.401       .  A
C229        H233   1.084       .  S
C230        O234   1.368       .  S
O232        H236   0.991       .  S
O234        H235   0.992       .  S
C237        C238   1.399       .  A
C237        C242   1.406       .  A
C238        C239   1.399       .  A
C238        H243   1.084       .  S
C239        C240   1.418       .  A
C239        O244   1.371       .  S
C240        C241   1.408       .  A
C241        C242   1.403       .  A
C241        H245   1.083       .  S
C242        O246   1.370       .  S
O244        H248   0.992       .  S
O246        H247   0.991       .  S
C249        C250   1.399       .  A
C249        C254   1.403       .  A
C249        C485   1.478       .  S
C250        C251   1.401       .  A
C250        H255   1.084       .  S
C251        C252   1.402       .  A
C251        C347   1.479       .  S
C252        C253   1.406       .  A
C252        H256   1.081       .  S
C253        C254   1.409       .  A
C253        C473   1.495       .  S
C254        H257   1.083       .  S
C258        C259   1.401       .  A
C258        C263   1.407       .  A
C258        C449   1.482       .  S
C259        C260   1.399       .  A
C259        H264   1.084       .  S
C260        C261   1.400       .  A
C260        C461   1.471       .  S
C261        C262   1.402       .  A
C261        H265   1.084       .  S
C262        C263   1.406       .  A
C262        C349   1.483       .  S
C263        H266   1.084       .  S
O267       Cr285   2.007       .  S
O267        C275   1.265       .  A
O268       Cr285   1.960       .  S
O268        C269   1.257       .  A
C269        C464   1.476       .  S
C269        O270   1.269       .  A
O271        C272   1.256       .  A
C272        C476   1.480       .  S
C272        O273   1.269       .  A
O273       Cr287   2.022       .  S
O274       Cr287   1.976       .  S
O274        C275   1.260       .  A
C275        C425   1.479       .  S
O276        C284   1.259       .  A
O277        C278   1.266       .  A
C278        C452   1.488       .  S
C278        O279   1.260       .  A
O279       Cr286   1.975       .  S
O280       Cr286   2.024       .  S
O280        C281   1.269       .  A
C281        C488   1.491       .  S
C281        O282   1.257       .  A
O283        C284   1.269       .  A
C284        C440   1.475       .  S
Cr286       O288   1.771       .  S
C289        C290   1.401       .  A
C289        C294   1.399       .  A
C289        C437   1.471       .  S
C290        C291   1.401       .  A
C290        H295   1.084       .  S
C291        C292   1.402       .  A
C291        C428   1.473       .  S
C292        C293   1.404       .  A
C292        H296   1.084       .  S
C293        C294   1.401       .  A
C293        C351   1.478       .  S
C294        H297   1.084       .  S
O298       Cr316   1.961       .  S
O298        C306   1.258       .  A
O299       Cr316   2.027       .  S
O299        C300   1.271       .  A
C300        C380   1.485       .  S
C300        O301   1.255       .  A
O302        C303   1.270       .  A
C303        C401   1.481       .  S
C303        O304   1.256       .  A
O305        C306   1.269       .  A
C306        C368   1.471       .  S
O307        C315   1.269       .  A
O308        C309   1.256       .  A
C309        C389   1.484       .  S
C309        O310   1.270       .  A
O310       Cr317   2.026       .  S
O311       Cr317   1.954       .  S
O311        C312   1.255       .  A
C312        C416   1.482       .  S
C312        O313   1.268       .  A
O313       Cr318   2.022       .  S
O314       Cr318   1.964       .  S
O314        C315   1.258       .  A
C315        C356   1.487       .  S
Cr317       O319   1.768       .  S
Cr318       O319   1.766       .  S
C320        C321   1.403       .  A
C320        C325   1.400       .  A
C320        C404   1.483       .  S
C321        C322   1.402       .  A
C321        H326   1.083       .  S
C322        C323   1.401       .  A
C322        C413   1.484       .  S
C323       C1812   1.402       .  A
C323       H1815   1.083       .  S
C324       C1811   1.402       .  A
C324       C1813   1.402       .  A
C324        C350   1.475   1_565  S
C325       C1812   1.402       .  A
C325       H1816   1.083       .  S
H327       C1811   1.083   1_545  S
H328       C1813   1.083       .  S
C329        C826   1.402       .  A
C329        C334   1.403       .  A
C329        C377   1.480       .  S
C330        C825   1.402       .  A
C330        C331   1.403       .  A
C330        H335   1.083       .  S
C331        C332   1.403       .  A
C331        C348   1.479   1_565  S
C332        C829   1.403       .  A
C332        H336   1.084       .  S
C333        C828   1.403       .  A
C333        C334   1.401       .  A
C333        C392   1.482       .  S
C334        H337   1.084       .  S
C338        C339   1.400       .  A
C338       C1335   1.400       .  A
C338        C365   1.476       .  S
C339        C340   1.403       .  A
C339        H344   1.084       .  S
C340       C1333   1.403       .  A
C340        C353   1.481       .  S
C341       C1332   1.403       .  A
C341        C342   1.403       .  A
C341        H345   1.083       .  S
C342        C343   1.402       .  A
C342        C352   1.478       .  S
C343       C1330   1.400       .  A
C343        H346   1.084       .  S
C347        C348   1.414       .  A
C347        C352   1.410       .  A
C348        C845   1.410   1_545  A
C349        C844   1.410       .  A
C349        C846   1.411       .  A
C350        C845   1.411   1_545  A
C350       C1343   1.409       .  A
C351       C1342   1.409   1_455  A
C351       C1344   1.406   1_455  A
C352       C1343   1.406       .  A
C353        C354   1.402       .  A
C353        C358   1.408       .  A
C354        C355   1.396       .  A
C354        H359   1.084       .  S
C355        C356   1.415       .  A
C355        O360   1.372       .  S
C356        C357   1.408       .  A
C357        C358   1.403       .  A
C357        H361   1.083       .  S
C358        O362   1.372       .  S
O360        H364   0.992       .  S
O362        H363   0.992       .  S
C365        C366   1.401       .  A
C365        C370   1.409       .  A
C366        C367   1.399       .  A
C366        H371   1.082       .  S
C367        C368   1.409       .  A
C367        O372   1.372       .  S
C368        C369   1.401       .  A
C369        C370   1.400       .  A
C369        H373   1.082       .  S
C370        O374   1.372   1_455  S
O372        H376   0.992       .  S
O374        H375   0.992   1_655  S
C377        C378   1.401       .  A
C377        C382   1.406       .  A
C378        C379   1.398       .  A
C378        H383   1.084       .  S
C379        C380   1.417       .  A
C379        O384   1.372       .  S
C380        C381   1.405       .  A
C381        C382   1.401       .  A
C381        H385   1.083       .  S
C382        O386   1.367       .  S
O384        H388   0.992       .  S
O386        H387   0.992       .  S
C389        C390   1.409       .  A
C389        C394   1.410       .  A
C390        C391   1.399       .  A
C390        H395   1.083       .  S
C391        C392   1.405       .  A
C391        O396   1.373       .  S
C392        C393   1.401       .  A
C393        C394   1.401       .  A
C393        H893   1.074       .  S
C394        O398   1.371       .  S
O396        H400   0.992       .  S
H397        C889   1.074   1_545  S
O398        H895   0.992       .  S
H399        O894   0.992       .  S
C401        C402   1.406       .  A
C401        C406   1.412       .  A
C402        C403   1.406       .  A
C402        H407   1.083       .  S
C403        C404   1.411       .  A
C403        O408   1.371       .  S
C404        C405   1.401       .  A
C405        C406   1.390       .  A
C405        H409   1.084       .  S
C406        O410   1.371       .  S
O408        H908   0.992       .  S
O410        H411   0.991       .  S
H412        O904   0.992       .  S
C413        C414   1.402       .  A
C413        C418   1.410       .  A
C414        C415   1.392       .  A
C414        H419   1.084       .  S
C415        C416   1.412       .  A
C415        O420   1.372       .  S
C416        C417   1.406       .  A
C417        C418   1.404       .  A
C417        H421   1.083       .  S
C418       O1414   1.371   1_455  S
O420        H424   0.992       .  S
O422       C1410   1.371       .  S
O422        H423   0.992       .  S
C425        C426   1.405       .  A
C425        C430   1.411       .  A
C426        C427   1.400       .  A
C426        H431   1.084       .  S
C427        C428   1.404       .  A
C427        O432   1.369       .  S
C428        C429   1.400       .  A
C429        C430   1.401       .  A
C429        H433   1.084       .  S
C430        O434   1.371       .  S
O432        H436   0.991       .  S
O434        H435   0.991       .  S
C437        C438   1.399       .  A
C437        C442   1.407       .  A
C438        C439   1.397       .  A
C438        H443   1.082       .  S
C439        C440   1.411       .  A
C439        O444   1.372       .  S
C440        C441   1.405       .  A
C441        C442   1.402       .  A
C441        H445   1.084       .  S
C442        O446   1.372       .  S
O444        H448   0.992       .  S
O446        H447   0.992       .  S
C449        C450   1.398       .  A
C449        C454   1.406       .  A
C450        C451   1.400       .  A
C450        H455   1.076       .  S
C451        C452   1.414       .  A
C451        O456   1.372       .  S
C452        C453   1.408       .  A
C453        C454   1.401       .  A
C453        H457   1.083       .  S
C454        O458   1.371       .  S
O456        H460   0.992       .  S
O458        H459   0.989       .  S
C461        C462   1.400       .  A
C461        C466   1.407       .  A
C462        C463   1.399       .  A
C462        H467   1.084       .  S
C463        C464   1.412       .  A
C463        O468   1.372       .  S
C464        C465   1.404       .  A
C465        C466   1.400       .  A
C465        H469   1.084       .  S
C466        O470   1.372       .  S
O468        H472   0.992       .  S
O470        H471   0.991       .  S
C473        C474   1.406       .  A
C473        C478   1.414       .  A
C474        C475   1.399       .  A
C474        H479   1.083       .  S
C475        C476   1.411       .  A
C475        O480   1.372       .  S
C476        C477   1.401       .  A
C477        C478   1.401       .  A
C477        H481   1.084       .  S
C478        O482   1.368       .  S
O480        H484   0.991       .  S
O482        H483   0.992       .  S
C485        C486   1.399       .  A
C485        C490   1.406       .  A
C486        C487   1.399       .  A
C486        H491   1.084       .  S
C487        C488   1.418       .  A
C487        O492   1.371       .  S
C488        C489   1.408       .  A
C489        C490   1.403       .  A
C489        H493   1.083       .  S
C490        O494   1.370       .  S
O492        H496   0.992       .  S
O494        H495   0.991       .  S
C497        C498   1.399       .  A
C497        C502   1.403       .  A
C497        C733   1.478       .  S
C498        C499   1.401       .  A
C498        H503   1.084       .  S
C499        C500   1.402       .  A
C499        C595   1.479       .  S
C500        C501   1.406       .  A
C500        H504   1.081       .  S
C501        C502   1.409       .  A
C501        C721   1.495       .  S
C502        H505   1.083       .  S
C506        C507   1.401       .  A
C506        C511   1.407       .  A
C506        C697   1.482       .  S
C507        C508   1.399       .  A
C507        H512   1.084       .  S
C508        C509   1.400       .  A
C508        C709   1.471       .  S
C509        C510   1.402       .  A
C509        H513   1.084       .  S
C510        C511   1.406       .  A
C510        C597   1.483       .  S
C511        H514   1.084       .  S
O515       Cr533   2.007   1_554  S
O515        C523   1.265       .  A
O516       Cr533   1.960   1_554  S
O516        C517   1.257       .  A
C517        C712   1.476       .  S
C517        O518   1.269       .  A
O518       Cr782   2.019   1_554  S
O519       Cr782   1.963   1_554  S
O519        C520   1.256       .  A
C520        C724   1.480       .  S
C520        O521   1.269       .  A
O521       Cr535   2.022       .  S
O522       Cr535   1.976       .  S
O522        C523   1.260       .  A
C523        C673   1.479       .  S
O524       Cr781   1.961       .  S
O524        C532   1.259       .  A
O525       Cr781   2.012       .  S
O525        C526   1.266       .  A
C526        C700   1.488       .  S
C526        O527   1.260       .  A
O527       Cr534   1.975       .  S
O528       Cr534   2.024       .  S
O528        C529   1.269       .  A
C529        C736   1.491       .  S
C529        O530   1.257       .  A
O530       Cr783   1.965       .  S
O531       Cr783   2.018       .  S
O531        C532   1.269       .  A
C532        C688   1.475       .  S
Cr533       O772   1.961       .  S
Cr533       O773   2.012       .  S
Cr533       O784   1.770       .  S
Cr534       O766   2.019       .  S
Cr534       O767   1.963       .  S
Cr534       O536   1.771       .  S
Cr535       O778   1.965   1_554  S
Cr535       O779   2.018   1_554  S
Cr535       O784   1.773   1_554  S
O536       Cr781   1.770       .  S
O536       Cr783   1.773       .  S
C537        C538   1.401       .  A
C537        C542   1.399       .  A
C537        C685   1.471       .  S
C538        C539   1.401       .  A
C538        H543   1.084       .  S
C539        C540   1.402       .  A
C539        C676   1.473       .  S
C540        C541   1.404       .  A
C540        H544   1.084       .  S
C541        C542   1.401       .  A
C541        C599   1.478       .  S
C542        H545   1.084       .  S
O546       Cr564   1.961       .  S
O546        C554   1.258       .  A
O547       Cr564   2.027       .  S
O547        C548   1.271       .  A
C548        C628   1.485       .  S
C548        O549   1.255       .  A
O549       Cr813   1.956       .  S
O550       Cr813   2.026       .  S
O550        C551   1.270       .  A
C551        C649   1.481       .  S
C551        O552   1.256       .  A
O552       Cr814   1.953       .  S
O553       Cr814   2.018       .  S
O553        C554   1.269       .  A
C554        C616   1.471       .  S
O555       Cr812   2.020   1_554  S
O555        C563   1.269       .  A
O556       Cr812   1.957   1_554  S
O556        C557   1.256       .  A
C557        C637   1.484       .  S
C557        O558   1.270       .  A
O558       Cr565   2.026       .  S
O559       Cr565   1.954       .  S
O559        C560   1.255       .  A
C560        C664   1.482       .  S
C560        O561   1.268       .  A
O561       Cr566   2.022   1_554  S
O562       Cr566   1.964   1_554  S
O562        C563   1.258       .  A
C563        C604   1.487       .  S
Cr564       O803   2.020       .  S
Cr564       O804   1.957       .  S
Cr564       O815   1.768       .  S
Cr565       O797   1.956   1_554  S
Cr565       O798   2.026   1_554  S
Cr565       O567   1.768   1_554  S
Cr566       O800   1.953       .  S
Cr566       O801   2.018       .  S
Cr566       O567   1.766       .  S
O567       Cr812   1.768       .  S
C568        C569   1.403       .  A
C568        C573   1.400       .  A
C568        C652   1.483       .  S
C569        C570   1.402       .  A
C569        H574   1.083       .  S
C570        C571   1.401       .  A
C570        C661   1.484       .  S
C571       C1068   1.402       .  A
C571       H1071   1.083   1_565  S
C572       C1067   1.402       .  A
C572       C1069   1.402       .  A
C572        C598   1.475       .  S
C573       C1068   1.402       .  A
C573       H1072   1.083       .  S
H575       C1067   1.083       .  S
H576       C1069   1.083       .  S
C577        C582   1.403       .  A
C577        C625   1.480       .  S
C578        C579   1.403       .  A
C578        H583   1.083       .  S
C579        C580   1.403       .  A
C579        C596   1.479       .  S
C580        H584   1.084       .  S
C581        C582   1.401       .  A
C581        C640   1.482       .  S
C582        H585   1.084       .  S
C586        C587   1.400       .  A
C586       C1583   1.400       .  A
C586        C613   1.476       .  S
C587        C588   1.403       .  A
C587        H592   1.084       .  S
C588       C1581   1.403       .  A
C588        C601   1.481       .  S
C589       C1580   1.403       .  A
C589        C590   1.403       .  A
C589        H593   1.083       .  S
C590        C591   1.402       .  A
C590        C600   1.478       .  S
C591       C1578   1.400       .  A
C591        H594   1.084       .  S
C595        C596   1.414       .  A
C595        C600   1.410       .  A
C598       C1591   1.409       .  A
C599       C1590   1.409   1_455  A
C599       C1592   1.406   1_455  A
C600       C1591   1.406       .  A
C601        C602   1.402       .  A
C601        C606   1.408       .  A
C602        C603   1.396       .  A
C602        H607   1.084       .  S
C603        C604   1.415       .  A
C603        O608   1.372       .  S
C604        C605   1.408       .  A
C605        C606   1.403       .  A
C605        H609   1.083       .  S
C606        O610   1.372       .  S
O608        H612   0.992       .  S
O610        H611   0.992       .  S
C613        C614   1.401       .  A
C613        C618   1.409       .  A
C614        C615   1.399       .  A
C614        H619   1.082       .  S
C615        C616   1.409       .  A
C615        O620   1.372       .  S
C616        C617   1.401       .  A
C617        C618   1.400       .  A
C617        H621   1.082       .  S
C618        O622   1.372   1_455  S
O620        H624   0.992       .  S
O622        H623   0.992   1_655  S
C625        C626   1.401       .  A
C625        C630   1.406       .  A
C626        C627   1.398       .  A
C626        H631   1.084       .  S
C627        C628   1.417       .  A
C627        O632   1.372       .  S
C628        C629   1.405       .  A
C629        C630   1.401       .  A
C629        H633   1.083       .  S
C630        O634   1.367       .  S
O632        H636   0.992       .  S
O634        H635   0.992       .  S
C637        C638   1.409       .  A
C637        C642   1.410       .  A
C638        C639   1.399       .  A
C638        H643   1.083       .  S
C639        C640   1.405       .  A
C639        O644   1.373       .  S
C640        C641   1.401       .  A
C641        C642   1.401       .  A
C642        O646   1.371       .  S
O644        H648   0.992       .  S
C649        C650   1.406       .  A
C649        C654   1.412       .  A
C650        C651   1.406       .  A
C650        H655   1.083       .  S
C651        C652   1.411       .  A
C651        O656   1.371   1_565  S
C652        C653   1.401       .  A
C653        C654   1.390       .  A
C653        H657   1.084       .  S
C654        O658   1.371       .  S
O658        H659   0.991       .  S
C661        C662   1.402       .  A
C661        C666   1.410       .  A
C662        C663   1.392       .  A
C662        H667   1.084       .  S
C663        C664   1.412       .  A
C663        O668   1.372       .  S
C664        C665   1.406       .  A
C665        C666   1.404       .  A
C665        H669   1.083       .  S
C666       O1662   1.371   1_455  S
O668        H672   0.992       .  S
O670       C1658   1.371       .  S
O670        H671   0.992       .  S
C673        C674   1.405       .  A
C673        C678   1.411       .  A
C674        C675   1.400       .  A
C674        H679   1.084       .  S
C675        C676   1.404       .  A
C675        O680   1.369       .  S
C676        C677   1.400       .  A
C677        C678   1.401       .  A
C677        H681   1.084       .  S
C678        O682   1.371       .  S
O680        H684   0.991       .  S
O682        H683   0.991       .  S
C685        C686   1.399       .  A
C685        C690   1.407       .  A
C686        C687   1.397       .  A
C686        H691   1.082       .  S
C687        C688   1.411       .  A
C687        O692   1.372       .  S
C688        C689   1.405       .  A
C689        C690   1.402       .  A
C689        H693   1.084       .  S
C690        O694   1.372       .  S
O692        H696   0.992       .  S
O694        H695   0.992       .  S
C697        C698   1.398       .  A
C697        C702   1.406       .  A
C698        C699   1.400       .  A
C698        H703   1.076       .  S
C699        C700   1.414       .  A
C699        O704   1.372       .  S
C700        C701   1.408       .  A
C701        C702   1.401       .  A
C701        H705   1.083       .  S
C702        O706   1.371       .  S
O704        H708   0.992       .  S
O706        H707   0.989       .  S
C709        C710   1.400       .  A
C709        C714   1.407       .  A
C710        C711   1.399       .  A
C710        H715   1.084       .  S
C711        C712   1.412       .  A
C711        O716   1.372       .  S
C712        C713   1.404       .  A
C713        C714   1.400       .  A
C713        H717   1.084       .  S
C714        O718   1.372       .  S
O716        H720   0.992       .  S
O718        H719   0.991       .  S
C721        C722   1.406       .  A
C721        C726   1.414       .  A
C722        C723   1.399       .  A
C722        H727   1.083       .  S
C723        C724   1.411       .  A
C723        O728   1.372       .  S
C724        C725   1.401       .  A
C725        C726   1.401       .  A
C725        H729   1.084       .  S
C726        O730   1.368       .  S
O728        H732   0.991       .  S
O730        H731   0.992       .  S
C733        C734   1.399       .  A
C733        C738   1.406       .  A
C734        C735   1.399       .  A
C734        H739   1.084       .  S
C735        C736   1.418       .  A
C735        O740   1.371       .  S
C736        C737   1.408       .  A
C737        C738   1.403       .  A
C737        H741   1.083       .  S
C738        O742   1.370       .  S
O740        H744   0.992       .  S
O742        H743   0.991       .  S
C745        C746   1.399       .  A
C745        C750   1.403       .  A
C745        C981   1.478       .  S
C746        C747   1.401       .  A
C746        H751   1.084       .  S
C747        C748   1.402       .  A
C747        C843   1.479       .  S
C748        C749   1.406       .  A
C748        H752   1.081       .  S
C749        C750   1.409       .  A
C749        C969   1.495       .  S
C750        H753   1.083       .  S
C754        C755   1.401       .  A
C754        C759   1.407       .  A
C754        C945   1.482       .  S
C755        C756   1.399       .  A
C755        H760   1.084       .  S
C756        C757   1.400       .  A
C756        C957   1.471       .  S
C757        C758   1.402       .  A
C757        H761   1.084       .  S
C758        C759   1.406       .  A
C758        C845   1.483       .  S
C759        H762   1.084       .  S
O763       Cr781   2.007       .  S
O763        C771   1.265       .  A
O764       Cr781   1.960       .  S
O764        C765   1.257       .  A
C765        C960   1.476       .  S
C765        O766   1.269       .  A
O767        C768   1.256       .  A
C768        C972   1.480       .  S
C768        O769   1.269       .  A
O769       Cr783   2.022       .  S
O770       Cr783   1.976       .  S
O770        C771   1.260       .  A
C771        C921   1.479       .  S
O772        C780   1.259       .  A
O773        C774   1.266       .  A
C774        C948   1.488       .  S
C774        O775   1.260       .  A
O775       Cr782   1.975       .  S
O776       Cr782   2.024       .  S
O776        C777   1.269       .  A
C777        C984   1.491       .  S
C777        O778   1.257       .  A
O779        C780   1.269       .  A
C780        C936   1.475       .  S
Cr782       O784   1.771       .  S
C785        C786   1.401       .  A
C785        C790   1.399       .  A
C785        C933   1.471       .  S
C786        C787   1.401       .  A
C786        H791   1.084       .  S
C787        C788   1.402       .  A
C787        C924   1.473       .  S
C788        C789   1.404       .  A
C788        H792   1.084       .  S
C789        C790   1.401       .  A
C789        C847   1.478       .  S
C790        H793   1.084       .  S
O794       Cr812   1.961       .  S
O794        C802   1.258       .  A
O795       Cr812   2.027       .  S
O795        C796   1.271       .  A
C796        C876   1.485       .  S
C796        O797   1.255       .  A
O798        C799   1.270       .  A
C799        C897   1.481       .  S
C799        O800   1.256       .  A
O801        C802   1.269       .  A
C802        C864   1.471       .  S
O803        C811   1.269       .  A
O804        C805   1.256       .  A
C805        C885   1.484       .  S
C805        O806   1.270       .  A
O806       Cr813   2.026       .  S
O807       Cr813   1.954       .  S
O807        C808   1.255       .  A
C808        C912   1.482       .  S
C808        O809   1.268       .  A
O809       Cr814   2.022       .  S
O810       Cr814   1.964       .  S
O810        C811   1.258       .  A
C811        C852   1.487       .  S
Cr813       O815   1.768       .  S
Cr814       O815   1.766       .  S
C816        C817   1.403       .  A
C816        C821   1.400       .  A
C816        C900   1.483       .  S
C817        C818   1.402       .  A
C817        H822   1.083       .  S
C818        C819   1.401       .  A
C818        C909   1.484       .  S
C819       C1316   1.402       .  A
C819       H1319   1.083   1_565  S
C820       C1315   1.402       .  A
C820       C1317   1.402       .  A
C820        C846   1.475       .  S
C821       C1316   1.402       .  A
C821       H1320   1.083       .  S
H823       C1315   1.083       .  S
H824       C1317   1.083       .  S
C825        C830   1.403       .  A
C825        C873   1.480       .  S
C826        C827   1.403       .  A
C826        H831   1.083       .  S
C827        C828   1.403       .  A
C827        C844   1.479       .  S
C828        H832   1.084       .  S
C829        C830   1.401       .  A
C829        C888   1.482       .  S
C830        H833   1.084       .  S
C834        C835   1.400       .  A
C834       C1831   1.400       .  A
C834        C861   1.476       .  S
C835        C836   1.403       .  A
C835        H840   1.084       .  S
C836       C1829   1.403       .  A
C836        C849   1.481       .  S
C837       C1828   1.403       .  A
C837        C838   1.403       .  A
C837        H841   1.083       .  S
C838        C839   1.402       .  A
C838        C848   1.478       .  S
C839       C1826   1.400       .  A
C839        H842   1.084       .  S
C843        C844   1.414       .  A
C843        C848   1.410       .  A
C846       C1839   1.409       .  A
C847       C1838   1.409   1_455  A
C847       C1840   1.406   1_455  A
C848       C1839   1.406       .  A
C849        C850   1.402       .  A
C849        C854   1.408       .  A
C850        C851   1.396       .  A
C850        H855   1.084       .  S
C851        C852   1.415       .  A
C851        O856   1.372       .  S
C852        C853   1.408       .  A
C853        C854   1.403       .  A
C853        H857   1.083       .  S
C854        O858   1.372       .  S
O856        H860   0.992       .  S
O858        H859   0.992       .  S
C861        C862   1.401       .  A
C861        C866   1.409       .  A
C862        C863   1.399       .  A
C862        H867   1.082       .  S
C863        C864   1.409       .  A
C863        O868   1.372       .  S
C864        C865   1.401       .  A
C865        C866   1.400       .  A
C865        H869   1.082       .  S
C866        O870   1.372   1_455  S
O868        H872   0.992       .  S
O870        H871   0.992   1_655  S
C873        C874   1.401       .  A
C873        C878   1.406       .  A
C874        C875   1.398       .  A
C874        H879   1.084       .  S
C875        C876   1.417       .  A
C875        O880   1.372       .  S
C876        C877   1.405       .  A
C877        C878   1.401       .  A
C877        H881   1.083       .  S
C878        O882   1.367       .  S
O880        H884   0.992       .  S
O882        H883   0.992       .  S
C885        C886   1.409       .  A
C885        C890   1.410       .  A
C886        C887   1.399       .  A
C886        H891   1.083       .  S
C887        C888   1.405       .  A
C887        O892   1.373       .  S
C888        C889   1.401       .  A
C889        C890   1.401       .  A
C890        O894   1.371       .  S
O892        H896   0.992       .  S
C897        C898   1.406       .  A
C897        C902   1.412       .  A
C898        C899   1.406       .  A
C898        H903   1.083       .  S
C899        C900   1.411       .  A
C899        O904   1.371   1_565  S
C900        C901   1.401       .  A
C901        C902   1.390       .  A
C901        H905   1.084       .  S
C902        O906   1.371       .  S
O906        H907   0.991       .  S
C909        C910   1.402       .  A
C909        C914   1.410       .  A
C910        C911   1.392       .  A
C910        H915   1.084       .  S
C911        C912   1.412       .  A
C911        O916   1.372       .  S
C912        C913   1.406       .  A
C913        C914   1.404       .  A
C913        H917   1.083       .  S
C914       O1910   1.371   1_455  S
O916        H920   0.992       .  S
O918       C1906   1.371       .  S
O918        H919   0.992       .  S
C921        C922   1.405       .  A
C921        C926   1.411       .  A
C922        C923   1.400       .  A
C922        H927   1.084       .  S
C923        C924   1.404       .  A
C923        O928   1.369       .  S
C924        C925   1.400       .  A
C925        C926   1.401       .  A
C925        H929   1.084       .  S
C926        O930   1.371       .  S
O928        H932   0.991       .  S
O930        H931   0.991       .  S
C933        C934   1.399       .  A
C933        C938   1.407       .  A
C934        C935   1.397       .  A
C934        H939   1.082       .  S
C935        C936   1.411       .  A
C935        O940   1.372       .  S
C936        C937   1.405       .  A
C937        C938   1.402       .  A
C937        H941   1.084       .  S
C938        O942   1.372       .  S
O940        H944   0.992       .  S
O942        H943   0.992       .  S
C945        C946   1.398       .  A
C945        C950   1.406       .  A
C946        C947   1.400       .  A
C946        H951   1.076       .  S
C947        C948   1.414       .  A
C947        O952   1.372       .  S
C948        C949   1.408       .  A
C949        C950   1.401       .  A
C949        H953   1.083       .  S
C950        O954   1.371       .  S
O952        H956   0.992       .  S
O954        H955   0.989       .  S
C957        C958   1.400       .  A
C957        C962   1.407       .  A
C958        C959   1.399       .  A
C958        H963   1.084       .  S
C959        C960   1.412       .  A
C959        O964   1.372       .  S
C960        C961   1.404       .  A
C961        C962   1.400       .  A
C961        H965   1.084       .  S
C962        O966   1.372       .  S
O964        H968   0.992       .  S
O966        H967   0.991       .  S
C969        C970   1.406       .  A
C969        C974   1.414       .  A
C970        C971   1.399       .  A
C970        H975   1.083       .  S
C971        C972   1.411       .  A
C971        O976   1.372       .  S
C972        C973   1.401       .  A
C973        C974   1.401       .  A
C973        H977   1.084       .  S
C974        O978   1.368       .  S
O976        H980   0.991       .  S
O978        H979   0.992       .  S
C981        C982   1.399       .  A
C981        C986   1.406       .  A
C982        C983   1.399       .  A
C982        H987   1.084       .  S
C983        C984   1.418       .  A
C983        O988   1.371       .  S
C984        C985   1.408       .  A
C985        C986   1.403       .  A
C985        H989   1.083       .  S
C986        O990   1.370       .  S
O988        H992   0.992       .  S
O990        H991   0.991       .  S
C993        C994   1.399       .  A
C993        C998   1.403       .  A
C993       C1229   1.478       .  S
C994        C995   1.401       .  A
C994        H999   1.084       .  S
C995        C996   1.402       .  A
C995       C1091   1.479       .  S
C996        C997   1.406       .  A
C996       H1000   1.081       .  S
C997        C998   1.409       .  A
C997       C1217   1.495       .  S
C998       H1001   1.083       .  S
C1002      C1003   1.401       .  A
C1002      C1007   1.407       .  A
C1002      C1193   1.482       .  S
C1003      C1004   1.399       .  A
C1003      H1008   1.084       .  S
C1004      C1005   1.400       .  A
C1004      C1205   1.471       .  S
C1005      C1006   1.402       .  A
C1005      H1009   1.084       .  S
C1006      C1007   1.406       .  A
C1006      C1093   1.483       .  S
C1007      H1010   1.084       .  S
O1011     Cr1029   2.007   1_554  S
O1011      C1019   1.265       .  A
O1012     Cr1029   1.960   1_554  S
O1012      C1013   1.257       .  A
C1013      C1208   1.476       .  S
C1013      O1014   1.269       .  A
O1014     Cr1278   2.019   1_554  S
O1015     Cr1278   1.963   1_554  S
O1015      C1016   1.256       .  A
C1016      C1220   1.480       .  S
C1016      O1017   1.269       .  A
O1017     Cr1031   2.022       .  S
O1018     Cr1031   1.976       .  S
O1018      C1019   1.260       .  A
C1019      C1169   1.479       .  S
O1020     Cr1277   1.961       .  S
O1020      C1028   1.259       .  A
O1021     Cr1277   2.012       .  S
O1021      C1022   1.266       .  A
C1022      C1196   1.488       .  S
C1022      O1023   1.260       .  A
O1023     Cr1030   1.975       .  S
O1024     Cr1030   2.024       .  S
O1024      C1025   1.269       .  A
C1025      C1232   1.491       .  S
C1025      O1026   1.257       .  A
O1026     Cr1279   1.965       .  S
O1027     Cr1279   2.018       .  S
O1027      C1028   1.269       .  A
C1028      C1184   1.475       .  S
Cr1029     O1268   1.961       .  S
Cr1029     O1269   2.012       .  S
Cr1029     O1280   1.770       .  S
Cr1030     O1262   2.019       .  S
Cr1030     O1263   1.963       .  S
Cr1030     O1032   1.771       .  S
Cr1031     O1274   1.965   1_554  S
Cr1031     O1275   2.018   1_554  S
Cr1031     O1280   1.773   1_554  S
O1032     Cr1277   1.770       .  S
O1032     Cr1279   1.773       .  S
C1033      C1034   1.401       .  A
C1033      C1038   1.399       .  A
C1033      C1181   1.471       .  S
C1034      C1035   1.401       .  A
C1034      H1039   1.084       .  S
C1035      C1036   1.402       .  A
C1035      C1172   1.473       .  S
C1036      C1037   1.404       .  A
C1036      H1040   1.084       .  S
C1037      C1038   1.401       .  A
C1037      C1095   1.478       .  S
C1038      H1041   1.084       .  S
O1042     Cr1060   1.961       .  S
O1042      C1050   1.258       .  A
O1043     Cr1060   2.027       .  S
O1043      C1044   1.271       .  A
C1044      C1124   1.485       .  S
C1044      O1045   1.255       .  A
O1045     Cr1309   1.956       .  S
O1046     Cr1309   2.026       .  S
O1046      C1047   1.270       .  A
C1047      C1145   1.481       .  S
C1047      O1048   1.256       .  A
O1048     Cr1310   1.953       .  S
O1049     Cr1310   2.018       .  S
O1049      C1050   1.269       .  A
C1050      C1112   1.471       .  S
O1051     Cr1308   2.020   1_554  S
O1051      C1059   1.269       .  A
O1052     Cr1308   1.957   1_554  S
O1052      C1053   1.256       .  A
C1053      C1133   1.484       .  S
C1053      O1054   1.270       .  A
O1054     Cr1061   2.026       .  S
O1055     Cr1061   1.954       .  S
O1055      C1056   1.255       .  A
C1056      C1160   1.482       .  S
C1056      O1057   1.268       .  A
O1057     Cr1062   2.022   1_554  S
O1058     Cr1062   1.964   1_554  S
O1058      C1059   1.258       .  A
C1059      C1100   1.487       .  S
Cr1060     O1299   2.020       .  S
Cr1060     O1300   1.957       .  S
Cr1060     O1311   1.768       .  S
Cr1061     O1293   1.956   1_554  S
Cr1061     O1294   2.026   1_554  S
Cr1061     O1063   1.768   1_554  S
Cr1062     O1296   1.953       .  S
Cr1062     O1297   2.018       .  S
Cr1062     O1063   1.766       .  S
O1063     Cr1308   1.768       .  S
C1064      C1065   1.403       .  A
C1064      C1069   1.400       .  A
C1064      C1148   1.483       .  S
C1065      C1066   1.402       .  A
C1065      H1070   1.083       .  S
C1066      C1067   1.401       .  A
C1066      C1157   1.484       .  S
C1068      C1094   1.475   1_465  S
C1073      C1570   1.402       .  A
C1073      C1078   1.403       .  A
C1073      C1121   1.480       .  S
C1074      C1569   1.402       .  A
C1074      C1075   1.403       .  A
C1074      H1079   1.083       .  S
C1075      C1076   1.403       .  A
C1075      C1092   1.479   1_565  S
C1076      C1573   1.403       .  A
C1076      H1080   1.084       .  S
C1077      C1572   1.403       .  A
C1077      C1078   1.401       .  A
C1077      C1136   1.482       .  S
C1078      H1081   1.084       .  S
C1082      C1083   1.400       .  A
C1082      C1109   1.476       .  S
C1083      C1084   1.403       .  A
C1083      H1088   1.084       .  S
C1084      C1097   1.481       .  S
C1085      C1086   1.403       .  A
C1085      H1089   1.083       .  S
C1086      C1087   1.402       .  A
C1086      C1096   1.478   1_455  S
C1087      H1090   1.084       .  S
C1091      C1092   1.414       .  A
C1091      C1096   1.410       .  A
C1092      C1589   1.410   1_545  A
C1093      C1588   1.410       .  A
C1093      C1590   1.411       .  A
C1094      C1589   1.411   1_545  A
C1097      C1098   1.402       .  A
C1097      C1102   1.408       .  A
C1098      C1099   1.396       .  A
C1098      H1103   1.084       .  S
C1099      C1100   1.415       .  A
C1099      O1104   1.372       .  S
C1100      C1101   1.408       .  A
C1101      C1102   1.403       .  A
C1101      H1105   1.083       .  S
C1102      O1106   1.372       .  S
O1104      H1108   0.992       .  S
O1106      H1107   0.992       .  S
C1109      C1110   1.401       .  A
C1109      C1114   1.409       .  A
C1110      C1111   1.399       .  A
C1110      H1115   1.082       .  S
C1111      C1112   1.409       .  A
C1111      O1116   1.372       .  S
C1112      C1113   1.401       .  A
C1113      C1114   1.400       .  A
C1113      H1117   1.082       .  S
C1114      O1118   1.372       .  S
O1116      H1120   0.992       .  S
O1118      H1119   0.992       .  S
C1121      C1122   1.401       .  A
C1121      C1126   1.406       .  A
C1122      C1123   1.398       .  A
C1122      H1127   1.084       .  S
C1123      C1124   1.417       .  A
C1123      O1128   1.372       .  S
C1124      C1125   1.405       .  A
C1125      C1126   1.401       .  A
C1125      H1129   1.083       .  S
C1126      O1130   1.367       .  S
O1128      H1132   0.992       .  S
O1130      H1131   0.992       .  S
C1133      C1134   1.409       .  A
C1133      C1138   1.410       .  A
C1134      C1135   1.399       .  A
C1134      H1139   1.083       .  S
C1135      C1136   1.405       .  A
C1135      O1140   1.373       .  S
C1136      C1137   1.401       .  A
C1137      C1138   1.401       .  A
C1137      H1637   1.074       .  S
C1138      O1142   1.371       .  S
O1140      H1144   0.992       .  S
H1141      C1633   1.074   1_545  S
O1142      H1639   0.992       .  S
H1143      O1638   0.992       .  S
C1145      C1146   1.406       .  A
C1145      C1150   1.412       .  A
C1146      C1147   1.406       .  A
C1146      H1151   1.083       .  S
C1147      C1148   1.411       .  A
C1147      O1152   1.371       .  S
C1148      C1149   1.401       .  A
C1149      C1150   1.390       .  A
C1149      H1153   1.084       .  S
C1150      O1154   1.371       .  S
O1152      H1652   0.992       .  S
O1154      H1155   0.991       .  S
H1156      O1648   0.992       .  S
C1157      C1158   1.402       .  A
C1157      C1162   1.410       .  A
C1158      C1159   1.392       .  A
C1158      H1163   1.084       .  S
C1159      C1160   1.412       .  A
C1159      O1164   1.372       .  S
C1160      C1161   1.406       .  A
C1161      C1162   1.404       .  A
C1161      H1165   1.083       .  S
O1164      H1168   0.992       .  S
O1166      H1167   0.992       .  S
C1169      C1170   1.405       .  A
C1169      C1174   1.411       .  A
C1170      C1171   1.400       .  A
C1170      H1175   1.084       .  S
C1171      C1172   1.404       .  A
C1171      O1176   1.369       .  S
C1172      C1173   1.400       .  A
C1173      C1174   1.401       .  A
C1173      H1177   1.084       .  S
C1174      O1178   1.371       .  S
O1176      H1180   0.991       .  S
O1178      H1179   0.991       .  S
C1181      C1182   1.399       .  A
C1181      C1186   1.407       .  A
C1182      C1183   1.397       .  A
C1182      H1187   1.082       .  S
C1183      C1184   1.411       .  A
C1183      O1188   1.372       .  S
C1184      C1185   1.405       .  A
C1185      C1186   1.402       .  A
C1185      H1189   1.084       .  S
C1186      O1190   1.372       .  S
O1188      H1192   0.992       .  S
O1190      H1191   0.992       .  S
C1193      C1194   1.398       .  A
C1193      C1198   1.406       .  A
C1194      C1195   1.400       .  A
C1194      H1199   1.076       .  S
C1195      C1196   1.414       .  A
C1195      O1200   1.372       .  S
C1196      C1197   1.408       .  A
C1197      C1198   1.401       .  A
C1197      H1201   1.083       .  S
C1198      O1202   1.371       .  S
O1200      H1204   0.992       .  S
O1202      H1203   0.989       .  S
C1205      C1206   1.400       .  A
C1205      C1210   1.407       .  A
C1206      C1207   1.399       .  A
C1206      H1211   1.084       .  S
C1207      C1208   1.412       .  A
C1207      O1212   1.372       .  S
C1208      C1209   1.404       .  A
C1209      C1210   1.400       .  A
C1209      H1213   1.084       .  S
C1210      O1214   1.372       .  S
O1212      H1216   0.992       .  S
O1214      H1215   0.991       .  S
C1217      C1218   1.406       .  A
C1217      C1222   1.414       .  A
C1218      C1219   1.399       .  A
C1218      H1223   1.083       .  S
C1219      C1220   1.411       .  A
C1219      O1224   1.372       .  S
C1220      C1221   1.401       .  A
C1221      C1222   1.401       .  A
C1221      H1225   1.084       .  S
C1222      O1226   1.368       .  S
O1224      H1228   0.991       .  S
O1226      H1227   0.992       .  S
C1229      C1230   1.399       .  A
C1229      C1234   1.406       .  A
C1230      C1231   1.399       .  A
C1230      H1235   1.084       .  S
C1231      C1232   1.418       .  A
C1231      O1236   1.371       .  S
C1232      C1233   1.408       .  A
C1233      C1234   1.403       .  A
C1233      H1237   1.083       .  S
C1234      O1238   1.370       .  S
O1236      H1240   0.992       .  S
O1238      H1239   0.991       .  S
C1241      C1242   1.399       .  A
C1241      C1246   1.403       .  A
C1241      C1477   1.478       .  S
C1242      C1243   1.401       .  A
C1242      H1247   1.084       .  S
C1243      C1244   1.402       .  A
C1243      C1339   1.479       .  S
C1244      C1245   1.406       .  A
C1244      H1248   1.081       .  S
C1245      C1246   1.409       .  A
C1245      C1465   1.495       .  S
C1246      H1249   1.083       .  S
C1250      C1251   1.401       .  A
C1250      C1255   1.407       .  A
C1250      C1441   1.482       .  S
C1251      C1252   1.399       .  A
C1251      H1256   1.084       .  S
C1252      C1253   1.400       .  A
C1252      C1453   1.471       .  S
C1253      C1254   1.402       .  A
C1253      H1257   1.084       .  S
C1254      C1255   1.406       .  A
C1254      C1341   1.483       .  S
C1255      H1258   1.084       .  S
O1259     Cr1277   2.007       .  S
O1259      C1267   1.265       .  A
O1260     Cr1277   1.960       .  S
O1260      C1261   1.257       .  A
C1261      C1456   1.476       .  S
C1261      O1262   1.269       .  A
O1263      C1264   1.256       .  A
C1264      C1468   1.480       .  S
C1264      O1265   1.269       .  A
O1265     Cr1279   2.022       .  S
O1266     Cr1279   1.976       .  S
O1266      C1267   1.260       .  A
C1267      C1417   1.479       .  S
O1268      C1276   1.259       .  A
O1269      C1270   1.266       .  A
C1270      C1444   1.488       .  S
C1270      O1271   1.260       .  A
O1271     Cr1278   1.975       .  S
O1272     Cr1278   2.024       .  S
O1272      C1273   1.269       .  A
C1273      C1480   1.491       .  S
C1273      O1274   1.257       .  A
O1275      C1276   1.269       .  A
C1276      C1432   1.475       .  S
Cr1278     O1280   1.771       .  S
C1281      C1282   1.401       .  A
C1281      C1286   1.399       .  A
C1281      C1429   1.471       .  S
C1282      C1283   1.401       .  A
C1282      H1287   1.084       .  S
C1283      C1284   1.402       .  A
C1283      C1420   1.473       .  S
C1284      C1285   1.404       .  A
C1284      H1288   1.084       .  S
C1285      C1286   1.401       .  A
C1285      C1343   1.478       .  S
C1286      H1289   1.084       .  S
O1290     Cr1308   1.961       .  S
O1290      C1298   1.258       .  A
O1291     Cr1308   2.027       .  S
O1291      C1292   1.271       .  A
C1292      C1372   1.485       .  S
C1292      O1293   1.255       .  A
O1294      C1295   1.270       .  A
C1295      C1393   1.481       .  S
C1295      O1296   1.256       .  A
O1297      C1298   1.269       .  A
C1298      C1360   1.471       .  S
O1299      C1307   1.269       .  A
O1300      C1301   1.256       .  A
C1301      C1381   1.484       .  S
C1301      O1302   1.270       .  A
O1302     Cr1309   2.026       .  S
O1303     Cr1309   1.954       .  S
O1303      C1304   1.255       .  A
C1304      C1408   1.482       .  S
C1304      O1305   1.268       .  A
O1305     Cr1310   2.022       .  S
O1306     Cr1310   1.964       .  S
O1306      C1307   1.258       .  A
C1307      C1348   1.487       .  S
Cr1309     O1311   1.768       .  S
Cr1310     O1311   1.766       .  S
C1312      C1313   1.403       .  A
C1312      C1317   1.400       .  A
C1312      C1396   1.483       .  S
C1313      C1314   1.402       .  A
C1313      H1318   1.083       .  S
C1314      C1315   1.401       .  A
C1314      C1405   1.484       .  S
C1316      C1342   1.475   1_465  S
C1321      C1818   1.402       .  A
C1321      C1326   1.403       .  A
C1321      C1369   1.480       .  S
C1322      C1817   1.402       .  A
C1322      C1323   1.403       .  A
C1322      H1327   1.083       .  S
C1323      C1324   1.403       .  A
C1323      C1340   1.479   1_565  S
C1324      C1821   1.403       .  A
C1324      H1328   1.084       .  S
C1325      C1820   1.403       .  A
C1325      C1326   1.401       .  A
C1325      C1384   1.482       .  S
C1326      H1329   1.084       .  S
C1330      C1331   1.400       .  A
C1330      C1357   1.476       .  S
C1331      C1332   1.403       .  A
C1331      H1336   1.084       .  S
C1332      C1345   1.481       .  S
C1333      C1334   1.403       .  A
C1333      H1337   1.083       .  S
C1334      C1335   1.402       .  A
C1334      C1344   1.478   1_455  S
C1335      H1338   1.084       .  S
C1339      C1340   1.414       .  A
C1339      C1344   1.410       .  A
C1340      C1837   1.410   1_545  A
C1341      C1836   1.410       .  A
C1341      C1838   1.411       .  A
C1342      C1837   1.411   1_545  A
C1345      C1346   1.402       .  A
C1345      C1350   1.408       .  A
C1346      C1347   1.396       .  A
C1346      H1351   1.084       .  S
C1347      C1348   1.415       .  A
C1347      O1352   1.372       .  S
C1348      C1349   1.408       .  A
C1349      C1350   1.403       .  A
C1349      H1353   1.083       .  S
C1350      O1354   1.372       .  S
O1352      H1356   0.992       .  S
O1354      H1355   0.992       .  S
C1357      C1358   1.401       .  A
C1357      C1362   1.409       .  A
C1358      C1359   1.399       .  A
C1358      H1363   1.082       .  S
C1359      C1360   1.409       .  A
C1359      O1364   1.372       .  S
C1360      C1361   1.401       .  A
C1361      C1362   1.400       .  A
C1361      H1365   1.082       .  S
C1362      O1366   1.372       .  S
O1364      H1368   0.992       .  S
O1366      H1367   0.992       .  S
C1369      C1370   1.401       .  A
C1369      C1374   1.406       .  A
C1370      C1371   1.398       .  A
C1370      H1375   1.084       .  S
C1371      C1372   1.417       .  A
C1371      O1376   1.372       .  S
C1372      C1373   1.405       .  A
C1373      C1374   1.401       .  A
C1373      H1377   1.083       .  S
C1374      O1378   1.367       .  S
O1376      H1380   0.992       .  S
O1378      H1379   0.992       .  S
C1381      C1382   1.409       .  A
C1381      C1386   1.410       .  A
C1382      C1383   1.399       .  A
C1382      H1387   1.083       .  S
C1383      C1384   1.405       .  A
C1383      O1388   1.373       .  S
C1384      C1385   1.401       .  A
C1385      C1386   1.401       .  A
C1385      H1885   1.074       .  S
C1386      O1390   1.371       .  S
O1388      H1392   0.992       .  S
H1389      C1881   1.074   1_545  S
O1390      H1887   0.992       .  S
H1391      O1886   0.992       .  S
C1393      C1394   1.406       .  A
C1393      C1398   1.412       .  A
C1394      C1395   1.406       .  A
C1394      H1399   1.083       .  S
C1395      C1396   1.411       .  A
C1395      O1400   1.371       .  S
C1396      C1397   1.401       .  A
C1397      C1398   1.390       .  A
C1397      H1401   1.084       .  S
C1398      O1402   1.371       .  S
O1400      H1900   0.992       .  S
O1402      H1403   0.991       .  S
H1404      O1896   0.992       .  S
C1405      C1406   1.402       .  A
C1405      C1410   1.410       .  A
C1406      C1407   1.392       .  A
C1406      H1411   1.084       .  S
C1407      C1408   1.412       .  A
C1407      O1412   1.372       .  S
C1408      C1409   1.406       .  A
C1409      C1410   1.404       .  A
C1409      H1413   1.083       .  S
O1412      H1416   0.992       .  S
O1414      H1415   0.992       .  S
C1417      C1418   1.405       .  A
C1417      C1422   1.411       .  A
C1418      C1419   1.400       .  A
C1418      H1423   1.084       .  S
C1419      C1420   1.404       .  A
C1419      O1424   1.369       .  S
C1420      C1421   1.400       .  A
C1421      C1422   1.401       .  A
C1421      H1425   1.084       .  S
C1422      O1426   1.371       .  S
O1424      H1428   0.991       .  S
O1426      H1427   0.991       .  S
C1429      C1430   1.399       .  A
C1429      C1434   1.407       .  A
C1430      C1431   1.397       .  A
C1430      H1435   1.082       .  S
C1431      C1432   1.411       .  A
C1431      O1436   1.372       .  S
C1432      C1433   1.405       .  A
C1433      C1434   1.402       .  A
C1433      H1437   1.084       .  S
C1434      O1438   1.372       .  S
O1436      H1440   0.992       .  S
O1438      H1439   0.992       .  S
C1441      C1442   1.398       .  A
C1441      C1446   1.406       .  A
C1442      C1443   1.400       .  A
C1442      H1447   1.076       .  S
C1443      C1444   1.414       .  A
C1443      O1448   1.372       .  S
C1444      C1445   1.408       .  A
C1445      C1446   1.401       .  A
C1445      H1449   1.083       .  S
C1446      O1450   1.371       .  S
O1448      H1452   0.992       .  S
O1450      H1451   0.989       .  S
C1453      C1454   1.400       .  A
C1453      C1458   1.407       .  A
C1454      C1455   1.399       .  A
C1454      H1459   1.084       .  S
C1455      C1456   1.412       .  A
C1455      O1460   1.372       .  S
C1456      C1457   1.404       .  A
C1457      C1458   1.400       .  A
C1457      H1461   1.084       .  S
C1458      O1462   1.372       .  S
O1460      H1464   0.992       .  S
O1462      H1463   0.991       .  S
C1465      C1466   1.406       .  A
C1465      C1470   1.414       .  A
C1466      C1467   1.399       .  A
C1466      H1471   1.083       .  S
C1467      C1468   1.411       .  A
C1467      O1472   1.372       .  S
C1468      C1469   1.401       .  A
C1469      C1470   1.401       .  A
C1469      H1473   1.084       .  S
C1470      O1474   1.368       .  S
O1472      H1476   0.991       .  S
O1474      H1475   0.992       .  S
C1477      C1478   1.399       .  A
C1477      C1482   1.406       .  A
C1478      C1479   1.399       .  A
C1478      H1483   1.084       .  S
C1479      C1480   1.418       .  A
C1479      O1484   1.371       .  S
C1480      C1481   1.408       .  A
C1481      C1482   1.403       .  A
C1481      H1485   1.083       .  S
C1482      O1486   1.370       .  S
O1484      H1488   0.992       .  S
O1486      H1487   0.991       .  S
C1489      C1490   1.399       .  A
C1489      C1494   1.403       .  A
C1489      C1725   1.478       .  S
C1490      C1491   1.401       .  A
C1490      H1495   1.084       .  S
C1491      C1492   1.402       .  A
C1491      C1587   1.479       .  S
C1492      C1493   1.406       .  A
C1492      H1496   1.081       .  S
C1493      C1494   1.409       .  A
C1493      C1713   1.495       .  S
C1494      H1497   1.083       .  S
C1498      C1499   1.401       .  A
C1498      C1503   1.407       .  A
C1498      C1689   1.482       .  S
C1499      C1500   1.399       .  A
C1499      H1504   1.084       .  S
C1500      C1501   1.400       .  A
C1500      C1701   1.471       .  S
C1501      C1502   1.402       .  A
C1501      H1505   1.084       .  S
C1502      C1503   1.406       .  A
C1502      C1589   1.483       .  S
C1503      H1506   1.084       .  S
O1507     Cr1525   2.007   1_554  S
O1507      C1515   1.265       .  A
O1508     Cr1525   1.960   1_554  S
O1508      C1509   1.257       .  A
C1509      C1704   1.476       .  S
C1509      O1510   1.269       .  A
O1510     Cr1774   2.019   1_554  S
O1511     Cr1774   1.963   1_554  S
O1511      C1512   1.256       .  A
C1512      C1716   1.480       .  S
C1512      O1513   1.269       .  A
O1513     Cr1527   2.022       .  S
O1514     Cr1527   1.976       .  S
O1514      C1515   1.260       .  A
C1515      C1665   1.479       .  S
O1516     Cr1773   1.961       .  S
O1516      C1524   1.259       .  A
O1517     Cr1773   2.012       .  S
O1517      C1518   1.266       .  A
C1518      C1692   1.488       .  S
C1518      O1519   1.260       .  A
O1519     Cr1526   1.975       .  S
O1520     Cr1526   2.024       .  S
O1520      C1521   1.269       .  A
C1521      C1728   1.491       .  S
C1521      O1522   1.257       .  A
O1522     Cr1775   1.965       .  S
O1523     Cr1775   2.018       .  S
O1523      C1524   1.269       .  A
C1524      C1680   1.475       .  S
Cr1525     O1764   1.961       .  S
Cr1525     O1765   2.012       .  S
Cr1525     O1776   1.770       .  S
Cr1526     O1758   2.019       .  S
Cr1526     O1759   1.963       .  S
Cr1526     O1528   1.771       .  S
Cr1527     O1770   1.965   1_554  S
Cr1527     O1771   2.018   1_554  S
Cr1527     O1776   1.773   1_554  S
O1528     Cr1773   1.770       .  S
O1528     Cr1775   1.773       .  S
C1529      C1530   1.401       .  A
C1529      C1534   1.399       .  A
C1529      C1677   1.471       .  S
C1530      C1531   1.401       .  A
C1530      H1535   1.084       .  S
C1531      C1532   1.402       .  A
C1531      C1668   1.473       .  S
C1532      C1533   1.404       .  A
C1532      H1536   1.084       .  S
C1533      C1534   1.401       .  A
C1533      C1591   1.478       .  S
C1534      H1537   1.084       .  S
O1538     Cr1556   1.961       .  S
O1538      C1546   1.258       .  A
O1539     Cr1556   2.027       .  S
O1539      C1540   1.271       .  A
C1540      C1620   1.485       .  S
C1540      O1541   1.255       .  A
O1541     Cr1805   1.956       .  S
O1542     Cr1805   2.026       .  S
O1542      C1543   1.270       .  A
C1543      C1641   1.481       .  S
C1543      O1544   1.256       .  A
O1544     Cr1806   1.953       .  S
O1545     Cr1806   2.018       .  S
O1545      C1546   1.269       .  A
C1546      C1608   1.471       .  S
O1547     Cr1804   2.020   1_554  S
O1547      C1555   1.269       .  A
O1548     Cr1804   1.957   1_554  S
O1548      C1549   1.256       .  A
C1549      C1629   1.484       .  S
C1549      O1550   1.270       .  A
O1550     Cr1557   2.026       .  S
O1551     Cr1557   1.954       .  S
O1551      C1552   1.255       .  A
C1552      C1656   1.482       .  S
C1552      O1553   1.268       .  A
O1553     Cr1558   2.022   1_554  S
O1554     Cr1558   1.964   1_554  S
O1554      C1555   1.258       .  A
C1555      C1596   1.487       .  S
Cr1556     O1795   2.020       .  S
Cr1556     O1796   1.957       .  S
Cr1556     O1807   1.768       .  S
Cr1557     O1789   1.956   1_554  S
Cr1557     O1790   2.026   1_554  S
Cr1557     O1559   1.768   1_554  S
Cr1558     O1792   1.953       .  S
Cr1558     O1793   2.018       .  S
Cr1558     O1559   1.766       .  S
O1559     Cr1804   1.768       .  S
C1560      C1561   1.403       .  A
C1560      C1565   1.400       .  A
C1560      C1644   1.483       .  S
C1561      C1562   1.402       .  A
C1561      H1566   1.083       .  S
C1562      C1563   1.401       .  A
C1562      C1653   1.484       .  S
C1564      C1590   1.475   1_455  S
C1569      C1574   1.403       .  A
C1569      C1617   1.480       .  S
C1570      C1571   1.403       .  A
C1570      H1575   1.083       .  S
C1571      C1572   1.403       .  A
C1571      C1588   1.479       .  S
C1572      H1576   1.084       .  S
C1573      C1574   1.401       .  A
C1573      C1632   1.482       .  S
C1574      H1577   1.084       .  S
C1578      C1579   1.400       .  A
C1578      C1605   1.476       .  S
C1579      C1580   1.403       .  A
C1579      H1584   1.084       .  S
C1580      C1593   1.481       .  S
C1581      C1582   1.403       .  A
C1581      H1585   1.083       .  S
C1582      C1583   1.402       .  A
C1582      C1592   1.478   1_455  S
C1583      H1586   1.084       .  S
C1587      C1588   1.414       .  A
C1587      C1592   1.410       .  A
C1593      C1594   1.402       .  A
C1593      C1598   1.408       .  A
C1594      C1595   1.396       .  A
C1594      H1599   1.084       .  S
C1595      C1596   1.415       .  A
C1595      O1600   1.372       .  S
C1596      C1597   1.408       .  A
C1597      C1598   1.403       .  A
C1597      H1601   1.083       .  S
C1598      O1602   1.372       .  S
O1600      H1604   0.992       .  S
O1602      H1603   0.992       .  S
C1605      C1606   1.401       .  A
C1605      C1610   1.409       .  A
C1606      C1607   1.399       .  A
C1606      H1611   1.082       .  S
C1607      C1608   1.409       .  A
C1607      O1612   1.372       .  S
C1608      C1609   1.401       .  A
C1609      C1610   1.400       .  A
C1609      H1613   1.082       .  S
C1610      O1614   1.372       .  S
O1612      H1616   0.992       .  S
O1614      H1615   0.992       .  S
C1617      C1618   1.401       .  A
C1617      C1622   1.406       .  A
C1618      C1619   1.398       .  A
C1618      H1623   1.084       .  S
C1619      C1620   1.417       .  A
C1619      O1624   1.372       .  S
C1620      C1621   1.405       .  A
C1621      C1622   1.401       .  A
C1621      H1625   1.083       .  S
C1622      O1626   1.367       .  S
O1624      H1628   0.992       .  S
O1626      H1627   0.992       .  S
C1629      C1630   1.409       .  A
C1629      C1634   1.410       .  A
C1630      C1631   1.399       .  A
C1630      H1635   1.083       .  S
C1631      C1632   1.405       .  A
C1631      O1636   1.373       .  S
C1632      C1633   1.401       .  A
C1633      C1634   1.401       .  A
C1634      O1638   1.371       .  S
O1636      H1640   0.992       .  S
C1641      C1642   1.406       .  A
C1641      C1646   1.412       .  A
C1642      C1643   1.406       .  A
C1642      H1647   1.083       .  S
C1643      C1644   1.411       .  A
C1643      O1648   1.371   1_565  S
C1644      C1645   1.401       .  A
C1645      C1646   1.390       .  A
C1645      H1649   1.084       .  S
C1646      O1650   1.371       .  S
O1650      H1651   0.991       .  S
C1653      C1654   1.402       .  A
C1653      C1658   1.410       .  A
C1654      C1655   1.392       .  A
C1654      H1659   1.084       .  S
C1655      C1656   1.412       .  A
C1655      O1660   1.372       .  S
C1656      C1657   1.406       .  A
C1657      C1658   1.404       .  A
C1657      H1661   1.083       .  S
O1660      H1664   0.992       .  S
O1662      H1663   0.992       .  S
C1665      C1666   1.405       .  A
C1665      C1670   1.411       .  A
C1666      C1667   1.400       .  A
C1666      H1671   1.084       .  S
C1667      C1668   1.404       .  A
C1667      O1672   1.369       .  S
C1668      C1669   1.400       .  A
C1669      C1670   1.401       .  A
C1669      H1673   1.084       .  S
C1670      O1674   1.371       .  S
O1672      H1676   0.991       .  S
O1674      H1675   0.991       .  S
C1677      C1678   1.399       .  A
C1677      C1682   1.407       .  A
C1678      C1679   1.397       .  A
C1678      H1683   1.082       .  S
C1679      C1680   1.411       .  A
C1679      O1684   1.372       .  S
C1680      C1681   1.405       .  A
C1681      C1682   1.402       .  A
C1681      H1685   1.084       .  S
C1682      O1686   1.372       .  S
O1684      H1688   0.992       .  S
O1686      H1687   0.992       .  S
C1689      C1690   1.398       .  A
C1689      C1694   1.406       .  A
C1690      C1691   1.400       .  A
C1690      H1695   1.076       .  S
C1691      C1692   1.414       .  A
C1691      O1696   1.372       .  S
C1692      C1693   1.408       .  A
C1693      C1694   1.401       .  A
C1693      H1697   1.083       .  S
C1694      O1698   1.371       .  S
O1696      H1700   0.992       .  S
O1698      H1699   0.989       .  S
C1701      C1702   1.400       .  A
C1701      C1706   1.407       .  A
C1702      C1703   1.399       .  A
C1702      H1707   1.084       .  S
C1703      C1704   1.412       .  A
C1703      O1708   1.372       .  S
C1704      C1705   1.404       .  A
C1705      C1706   1.400       .  A
C1705      H1709   1.084       .  S
C1706      O1710   1.372       .  S
O1708      H1712   0.992       .  S
O1710      H1711   0.991       .  S
C1713      C1714   1.406       .  A
C1713      C1718   1.414       .  A
C1714      C1715   1.399       .  A
C1714      H1719   1.083       .  S
C1715      C1716   1.411       .  A
C1715      O1720   1.372       .  S
C1716      C1717   1.401       .  A
C1717      C1718   1.401       .  A
C1717      H1721   1.084       .  S
C1718      O1722   1.368       .  S
O1720      H1724   0.991       .  S
O1722      H1723   0.992       .  S
C1725      C1726   1.399       .  A
C1725      C1730   1.406       .  A
C1726      C1727   1.399       .  A
C1726      H1731   1.084       .  S
C1727      C1728   1.418       .  A
C1727      O1732   1.371       .  S
C1728      C1729   1.408       .  A
C1729      C1730   1.403       .  A
C1729      H1733   1.083       .  S
C1730      O1734   1.370       .  S
O1732      H1736   0.992       .  S
O1734      H1735   0.991       .  S
C1737      C1738   1.399       .  A
C1737      C1742   1.403       .  A
C1737      C1973   1.478       .  S
C1738      C1739   1.401       .  A
C1738      H1743   1.084       .  S
C1739      C1740   1.402       .  A
C1739      C1835   1.479       .  S
C1740      C1741   1.406       .  A
C1740      H1744   1.081       .  S
C1741      C1742   1.409       .  A
C1741      C1961   1.495       .  S
C1742      H1745   1.083       .  S
C1746      C1747   1.401       .  A
C1746      C1751   1.407       .  A
C1746      C1937   1.482       .  S
C1747      C1748   1.399       .  A
C1747      H1752   1.084       .  S
C1748      C1749   1.400       .  A
C1748      C1949   1.471       .  S
C1749      C1750   1.402       .  A
C1749      H1753   1.084       .  S
C1750      C1751   1.406       .  A
C1750      C1837   1.483       .  S
C1751      H1754   1.084       .  S
O1755     Cr1773   2.007       .  S
O1755      C1763   1.265       .  A
O1756     Cr1773   1.960       .  S
O1756      C1757   1.257       .  A
C1757      C1952   1.476       .  S
C1757      O1758   1.269       .  A
O1759      C1760   1.256       .  A
C1760      C1964   1.480       .  S
C1760      O1761   1.269       .  A
O1761     Cr1775   2.022       .  S
O1762     Cr1775   1.976       .  S
O1762      C1763   1.260       .  A
C1763      C1913   1.479       .  S
O1764      C1772   1.259       .  A
O1765      C1766   1.266       .  A
C1766      C1940   1.488       .  S
C1766      O1767   1.260       .  A
O1767     Cr1774   1.975       .  S
O1768     Cr1774   2.024       .  S
O1768      C1769   1.269       .  A
C1769      C1976   1.491       .  S
C1769      O1770   1.257       .  A
O1771      C1772   1.269       .  A
C1772      C1928   1.475       .  S
Cr1774     O1776   1.771       .  S
C1777      C1778   1.401       .  A
C1777      C1782   1.399       .  A
C1777      C1925   1.471       .  S
C1778      C1779   1.401       .  A
C1778      H1783   1.084       .  S
C1779      C1780   1.402       .  A
C1779      C1916   1.473       .  S
C1780      C1781   1.404       .  A
C1780      H1784   1.084       .  S
C1781      C1782   1.401       .  A
C1781      C1839   1.478       .  S
C1782      H1785   1.084       .  S
O1786     Cr1804   1.961       .  S
O1786      C1794   1.258       .  A
O1787     Cr1804   2.027       .  S
O1787      C1788   1.271       .  A
C1788      C1868   1.485       .  S
C1788      O1789   1.255       .  A
O1790      C1791   1.270       .  A
C1791      C1889   1.481       .  S
C1791      O1792   1.256       .  A
O1793      C1794   1.269       .  A
C1794      C1856   1.471       .  S
O1795      C1803   1.269       .  A
O1796      C1797   1.256       .  A
C1797      C1877   1.484       .  S
C1797      O1798   1.270       .  A
O1798     Cr1805   2.026       .  S
O1799     Cr1805   1.954       .  S
O1799      C1800   1.255       .  A
C1800      C1904   1.482       .  S
C1800      O1801   1.268       .  A
O1801     Cr1806   2.022       .  S
O1802     Cr1806   1.964       .  S
O1802      C1803   1.258       .  A
C1803      C1844   1.487       .  S
Cr1805     O1807   1.768       .  S
Cr1806     O1807   1.766       .  S
C1808      C1809   1.403       .  A
C1808      C1813   1.400       .  A
C1808      C1892   1.483       .  S
C1809      C1810   1.402       .  A
C1809      H1814   1.083       .  S
C1810      C1811   1.401       .  A
C1810      C1901   1.484       .  S
C1812      C1838   1.475   1_455  S
C1817      C1822   1.403       .  A
C1817      C1865   1.480       .  S
C1818      C1819   1.403       .  A
C1818      H1823   1.083       .  S
C1819      C1820   1.403       .  A
C1819      C1836   1.479       .  S
C1820      H1824   1.084       .  S
C1821      C1822   1.401       .  A
C1821      C1880   1.482       .  S
C1822      H1825   1.084       .  S
C1826      C1827   1.400       .  A
C1826      C1853   1.476       .  S
C1827      C1828   1.403       .  A
C1827      H1832   1.084       .  S
C1828      C1841   1.481       .  S
C1829      C1830   1.403       .  A
C1829      H1833   1.083       .  S
C1830      C1831   1.402       .  A
C1830      C1840   1.478   1_455  S
C1831      H1834   1.084       .  S
C1835      C1836   1.414       .  A
C1835      C1840   1.410       .  A
C1841      C1842   1.402       .  A
C1841      C1846   1.408       .  A
C1842      C1843   1.396       .  A
C1842      H1847   1.084       .  S
C1843      C1844   1.415       .  A
C1843      O1848   1.372       .  S
C1844      C1845   1.408       .  A
C1845      C1846   1.403       .  A
C1845      H1849   1.083       .  S
C1846      O1850   1.372       .  S
O1848      H1852   0.992       .  S
O1850      H1851   0.992       .  S
C1853      C1854   1.401       .  A
C1853      C1858   1.409       .  A
C1854      C1855   1.399       .  A
C1854      H1859   1.082       .  S
C1855      C1856   1.409       .  A
C1855      O1860   1.372       .  S
C1856      C1857   1.401       .  A
C1857      C1858   1.400       .  A
C1857      H1861   1.082       .  S
C1858      O1862   1.372       .  S
O1860      H1864   0.992       .  S
O1862      H1863   0.992       .  S
C1865      C1866   1.401       .  A
C1865      C1870   1.406       .  A
C1866      C1867   1.398       .  A
C1866      H1871   1.084       .  S
C1867      C1868   1.417       .  A
C1867      O1872   1.372       .  S
C1868      C1869   1.405       .  A
C1869      C1870   1.401       .  A
C1869      H1873   1.083       .  S
C1870      O1874   1.367       .  S
O1872      H1876   0.992       .  S
O1874      H1875   0.992       .  S
C1877      C1878   1.409       .  A
C1877      C1882   1.410       .  A
C1878      C1879   1.399       .  A
C1878      H1883   1.083       .  S
C1879      C1880   1.405       .  A
C1879      O1884   1.373       .  S
C1880      C1881   1.401       .  A
C1881      C1882   1.401       .  A
C1882      O1886   1.371       .  S
O1884      H1888   0.992       .  S
C1889      C1890   1.406       .  A
C1889      C1894   1.412       .  A
C1890      C1891   1.406       .  A
C1890      H1895   1.083       .  S
C1891      C1892   1.411       .  A
C1891      O1896   1.371   1_565  S
C1892      C1893   1.401       .  A
C1893      C1894   1.390       .  A
C1893      H1897   1.084       .  S
C1894      O1898   1.371       .  S
O1898      H1899   0.991       .  S
C1901      C1902   1.402       .  A
C1901      C1906   1.410       .  A
C1902      C1903   1.392       .  A
C1902      H1907   1.084       .  S
C1903      C1904   1.412       .  A
C1903      O1908   1.372       .  S
C1904      C1905   1.406       .  A
C1905      C1906   1.404       .  A
C1905      H1909   1.083       .  S
O1908      H1912   0.992       .  S
O1910      H1911   0.992       .  S
C1913      C1914   1.405       .  A
C1913      C1918   1.411       .  A
C1914      C1915   1.400       .  A
C1914      H1919   1.084       .  S
C1915      C1916   1.404       .  A
C1915      O1920   1.369       .  S
C1916      C1917   1.400       .  A
C1917      C1918   1.401       .  A
C1917      H1921   1.084       .  S
C1918      O1922   1.371       .  S
O1920      H1924   0.991       .  S
O1922      H1923   0.991       .  S
C1925      C1926   1.399       .  A
C1925      C1930   1.407       .  A
C1926      C1927   1.397       .  A
C1926      H1931   1.082       .  S
C1927      C1928   1.411       .  A
C1927      O1932   1.372       .  S
C1928      C1929   1.405       .  A
C1929      C1930   1.402       .  A
C1929      H1933   1.084       .  S
C1930      O1934   1.372       .  S
O1932      H1936   0.992       .  S
O1934      H1935   0.992       .  S
C1937      C1938   1.398       .  A
C1937      C1942   1.406       .  A
C1938      C1939   1.400       .  A
C1938      H1943   1.076       .  S
C1939      C1940   1.414       .  A
C1939      O1944   1.372       .  S
C1940      C1941   1.408       .  A
C1941      C1942   1.401       .  A
C1941      H1945   1.083       .  S
C1942      O1946   1.371       .  S
O1944      H1948   0.992       .  S
O1946      H1947   0.989       .  S
C1949      C1950   1.400       .  A
C1949      C1954   1.407       .  A
C1950      C1951   1.399       .  A
C1950      H1955   1.084       .  S
C1951      C1952   1.412       .  A
C1951      O1956   1.372       .  S
C1952      C1953   1.404       .  A
C1953      C1954   1.400       .  A
C1953      H1957   1.084       .  S
C1954      O1958   1.372       .  S
O1956      H1960   0.992       .  S
O1958      H1959   0.991       .  S
C1961      C1962   1.406       .  A
C1961      C1966   1.414       .  A
C1962      C1963   1.399       .  A
C1962      H1967   1.083       .  S
C1963      C1964   1.411       .  A
C1963      O1968   1.372       .  S
C1964      C1965   1.401       .  A
C1965      C1966   1.401       .  A
C1965      H1969   1.084       .  S
C1966      O1970   1.368       .  S
O1968      H1972   0.991       .  S
O1970      H1971   0.992       .  S
C1973      C1974   1.399       .  A
C1973      C1978   1.406       .  A
C1974      C1975   1.399       .  A
C1974      H1979   1.084       .  S
C1975      C1976   1.418       .  A
C1975      O1980   1.371       .  S
C1976      C1977   1.408       .  A
C1977      C1978   1.403       .  A
C1977      H1981   1.083       .  S
C1978      O1982   1.370       .  S
O1980      H1984   0.992       .  S
O1982      H1983   0.991       .  S
