geometry optimzed in LAMMPS
_audit_creation_date              2020-11-30 
_audit_creation_method            'lammps2cif' 
_symmetry_space_group_name_H-M    'P1' 
_symmetry_Int_Tables_number       1 
_symmetry_cell_setting            triclinic 
loop_ 
_symmetry_equiv_pos_as_xyz 
  x,y,z 
_cell_length_a                    39.68009189 
_cell_length_b                    39.51682895939634 
_cell_length_c                    99.2125017858007 
_cell_angle_alpha                 89.9926102391251 
_cell_angle_beta                  89.94271827423835 
_cell_angle_gamma                 120.5234233327704 
loop_ 
_atom_site_label 
_atom_site_type_symbol 
_atom_site_fract_x 
_atom_site_fract_y 
_atom_site_fract_z 
_atom_site_charge 
C1          C  0.65420321  0.07320110  0.73218596     0.80800
N2          N  0.68905739  0.08625828  0.72588348    -0.77500
C3          C  0.69296856  0.06536411  0.71579478     0.83200
N4          N  0.66109607  0.03136629  0.71169186    -0.77500
C5          C  0.62596462  0.01795758  0.71784838     0.83300
N6          N  0.62249792  0.03897662  0.72806396    -0.79200
C7          C  0.98754159  0.14602256  0.65075546     0.80800
N8          N  0.95282517  0.13116469  0.65746805    -0.77500
C9          C  0.94942331  0.15077268  0.66819386     0.83200
N10         N  0.98084720  0.18545232  0.67198245    -0.77500
C11         C  0.01553330  0.20076848  0.66539500     0.83300
N12         N  0.01847510  0.18117869  0.65462272    -0.79200
C13         C  0.51605353  0.81988894  0.81247450     0.80800
N14         N  0.53613936  0.80630312  0.81946658    -0.77500
C15         C  0.55793981  0.82621492  0.83032459     0.83200
N16         N  0.56066732  0.86059484  0.83385529    -0.77500
C17         C  0.54107655  0.87489726  0.82694986     0.83300
N18         N  0.51898478  0.85456058  0.81610420    -0.79200
C19         C  0.76503131  0.74596891  0.89607881     0.80800
N20         N  0.76596527  0.71328567  0.89235291    -0.77500
C21         C  0.74685930  0.69283915  0.88113187     0.83200
N22         N  0.72601651  0.70487727  0.87378196    -0.77500
C23         C  0.72398542  0.73679972  0.87748890     0.83300
N24         N  0.74365047  0.75722867  0.88864565    -0.79200
C25         C  0.85516067  0.48464999  0.48006578     0.80800
N26         N  0.87933350  0.47609997  0.48692673    -0.77500
C27         C  0.90156250  0.49877162  0.49725853     0.83200
N28         N  0.89977491  0.53094292  0.50080868    -0.77500
C29         C  0.87585712  0.54023659  0.49404661     0.83300
N30         N  0.85386237  0.51731297  0.48362048    -0.79200
C31         C  0.11098046  0.41104413  0.55941039     0.80800
N32         N  0.10780837  0.37741595  0.55456640    -0.77500
C33         C  0.08499069  0.35926642  0.54366914     0.83200
N34         N  0.06589410  0.37529444  0.53751986    -0.77500
C35         C  0.06880097  0.40878203  0.54230508     0.83300
N36         N  0.09155426  0.42661706  0.55317105    -0.79200
C37         C  0.65236285  0.47944480  0.98330648     0.80800
N38         N  0.68101038  0.51572223  0.98717130    -0.77500
C39         C  0.67583334  0.53349083  0.99803918     0.83200
N40         N  0.64125999  0.51501166  0.00469093    -0.77500
C41         C  0.61217874  0.47881172  0.00093046     0.83300
N42         N  0.61782833  0.46120169  0.99011828    -0.79200
C43         C  0.32334068  0.39835882  0.06584180     0.80800
N44         N  0.35719260  0.40566187  0.06001273    -0.77500
C45         C  0.35695805  0.38442342  0.04930631     0.83200
N46         N  0.32225202  0.35581704  0.04429558    -0.77500
C47         C  0.28772504  0.34760444  0.05004415     0.83300
N48         N  0.28873907  0.36910682  0.06090271    -0.79200
C49         C  0.98289320  0.74742194  0.39432522     0.80800
N50         N  0.01745741  0.76415769  0.38750843    -0.77500
C51         C  0.02121650  0.74713487  0.37618606     0.83200
N52         N  0.99068886  0.71268031  0.37188494    -0.77500
C53         C  0.95630288  0.69528104  0.37864673     0.83300
N54         N  0.95240644  0.71275488  0.38988069    -0.79200
C55         C  0.31050401  0.82575588  0.31091633     0.80800
N56         N  0.34428000  0.85840762  0.31469474    -0.77500
C57         C  0.34497223  0.87936212  0.32562745     0.83200
N58         N  0.31159227  0.86753090  0.33274724    -0.77500
C59         C  0.27760454  0.83507403  0.32911896     0.83300
N60         N  0.27726138  0.81452432  0.31806967    -0.79200
C61         C  0.21810018  0.16858757  0.14104963     0.80800
N62         N  0.24206883  0.15966867  0.14793529    -0.77500
C63         C  0.26202914  0.18076861  0.15890558     0.83200
N64         N  0.25765225  0.21111575  0.16310304    -0.77500
C65         C  0.23395771  0.22068848  0.15622510     0.83300
N66         N  0.21459549  0.19947621  0.14516461    -0.79200
C67         C  0.43232358  0.06685650  0.23183868     0.80800
N68         N  0.43234146  0.03484435  0.22685720    -0.77500
C69         C  0.41581005  0.01972204  0.21468213     0.83200
N70         N  0.39870831  0.03651149  0.20758025    -0.77500
C71         C  0.39853619  0.06857924  0.21253914     0.83300
N72         N  0.41491963  0.08301891  0.22471538    -0.79200
C73         C  0.09487080  0.63453132  0.80452085     0.80800
N74         N  0.10850800  0.66735216  0.81216848    -0.77500
C75         C  0.08903097  0.66719723  0.82340384     0.83200
N76         N  0.05625361  0.63369673  0.82718702    -0.77500
C77         C  0.04239701  0.60044265  0.81972160     0.83300
N78         N  0.06202462  0.60094369  0.80842411    -0.79200
C79         C  0.18392165  0.95131405  0.89543595     0.80800
N80         N  0.17078047  0.91701930  0.88871220    -0.77500
C81         C  0.19146070  0.91440182  0.87830779     0.83200
N82         N  0.22566538  0.94670988  0.87460357    -0.77500
C83         C  0.23962060  0.98131810  0.88131443     0.83300
N84         N  0.21841005  0.98328813  0.89172455    -0.79200
C85         C  0.75743910  0.71948252  0.64138354     0.80800
N86         N  0.77134062  0.69719046  0.64663081    -0.77500
C87         C  0.75236762  0.67187361  0.65689808     0.83200
N88         N  0.71941725  0.66939674  0.66205241    -0.77500
C89         C  0.70530840  0.69162038  0.65694920     0.83300
N90         N  0.72468230  0.71694372  0.64670154    -0.79200
C91         C  0.85102955  0.48844104  0.72781386     0.80800
N92         N  0.88428556  0.48866771  0.72427993    -0.77500
C93         C  0.90328395  0.50618447  0.71263833     0.83200
N94         N  0.88838946  0.52299801  0.70448093    -0.77500
C95         C  0.85518118  0.52278052  0.70789842     0.83300
N96         N  0.83650513  0.50541770  0.71956267    -0.79200
C97         C  0.43978875  0.27780787  0.48032234     0.80800
N98         N  0.45236133  0.31033590  0.48812507    -0.77500
C99         C  0.43142152  0.30999763  0.49901477     0.83200
N100        N  0.39732262  0.27691962  0.50198637    -0.77500
C101        C  0.38435454  0.24420472  0.49437473     0.83300
N102        N  0.40571188  0.24450519  0.48359773    -0.79200
C103        C  0.53304868  0.60042836  0.56790105     0.80800
N104        N  0.51863141  0.56617187  0.56102513    -0.77500
C105        C  0.53753734  0.56371862  0.55003324     0.83200
N106        N  0.57058094  0.59611947  0.54569195    -0.77500
C107        C  0.58496941  0.63074206  0.55233742     0.83300
N108        N  0.56623678  0.63273465  0.56351174    -0.79200
C109        C  0.42035679  0.04538806  0.97267824     0.80800
N110        N  0.38795718  0.04615705  0.97663146    -0.77500
C111        C  0.36856075  0.02703572  0.98800951     0.83200
N112        N  0.38194150  0.00767349  0.99555503    -0.77500
C113        C  0.41445308  0.00703116  0.99175358     0.83300
N114        N  0.43368375  0.02624718  0.98037982    -0.79200
C115        C  0.57539646  0.85017360  0.04722630     0.80800
N116        N  0.56087725  0.86806571  0.03947797    -0.77500
C117        C  0.52718484  0.86676822  0.04287219     0.83200
N118        N  0.50816280  0.84761483  0.05431877    -0.77500
C119        C  0.52233037  0.82970013  0.06228205     0.83300
N120        N  0.55585090  0.83062806  0.05856043    -0.79200
C121        C  0.18571122  0.15662667  0.39377181     0.80800
N122        N  0.17231973  0.17856350  0.38796801    -0.77500
C123        C  0.19099440  0.20179472  0.37723190     0.83200
N124        N  0.22321902  0.20239584  0.37222670    -0.77500
C125        C  0.23699806  0.18032692  0.37777058     0.83300
N126        N  0.21818936  0.15784770  0.38876135    -0.79200
C127        C  0.09695516  0.39691976  0.30957691     0.80800
N128        N  0.11212278  0.37893034  0.31700605    -0.77500
C129        C  0.09565311  0.36159036  0.32892010     0.83200
N130        N  0.06355681  0.36194666  0.33340428    -0.77500
C131        C  0.04857199  0.38047050  0.32624751     0.83300
N132        N  0.06514885  0.39764872  0.31427068    -0.79200
C133        C  0.85315960  0.27992255  0.23017321     0.80800
N134        N  0.88625977  0.31235657  0.22575684    -0.77500
C135        C  0.90539820  0.31006620  0.21473627     0.83200
N136        N  0.89172451  0.27529428  0.20826435    -0.77500
C137        C  0.85870289  0.24295494  0.21263629     0.83300
N138        N  0.83984992  0.24518437  0.22368953    -0.79200
C139        C  0.77020776  0.95055491  0.14626749     0.80800
N140        N  0.73671677  0.91839346  0.15044822    -0.77500
C141        C  0.71772205  0.92029100  0.16151897     0.83200
N142        N  0.73279646  0.95423353  0.16862401    -0.77500
C143        C  0.76676861  0.98657328  0.16468942     0.83300
N144        N  0.78497393  0.98437563  0.15343191    -0.79200
C145        C  0.50686432  0.60599893  0.31311737     0.80800
N146        N  0.50773362  0.57346878  0.31697754    -0.77500
C147        C  0.52887032  0.57466912  0.32787617     0.83200
N148        N  0.54917890  0.60864358  0.33490912    -0.77500
C149        C  0.54899692  0.64156544  0.33120233     0.83300
N150        N  0.52779233  0.63983100  0.32018256    -0.79200
C151        C  0.75501082  0.93453892  0.39627677     0.80800
N152        N  0.73278954  0.90149857  0.38896627    -0.77500
C153        C  0.71250565  0.90232254  0.37811292     0.83200
N154        N  0.71386547  0.93621109  0.37469725    -0.77500
C155        C  0.73550224  0.96974837  0.38194445     0.83300
N156        N  0.75584404  0.96836955  0.39279785    -0.79200
C157        C  0.40818040  0.27806226  0.73771897     0.80800
N158        N  0.38830294  0.24395835  0.73068849    -0.77500
C159        C  0.36541198  0.24097523  0.72006396     0.83200
N160        N  0.36359125  0.27286864  0.71615219    -0.77500
C161        C  0.38331669  0.30716441  0.72303913     0.83300
N162        N  0.40592555  0.30988756  0.73377640    -0.79200
C163        C  0.21053775  0.96691380  0.64104076     0.80800
N164        N  0.22837692  0.00009007  0.64870378    -0.77500
C165        C  0.24664464  0.00104405  0.66041456     0.83200
N166        N  0.24602709  0.96808496  0.66464996    -0.77500
C167        C  0.22789956  0.93469001  0.65724872     0.83300
N168        N  0.21035558  0.93421901  0.64543964    -0.79200
C169        C  0.64683263  0.08138902  0.47909959     0.80800
N170        N  0.61300761  0.06119320  0.48609945    -0.77500
C171        C  0.61042620  0.03803187  0.49655817     0.83200
N172        N  0.64167552  0.03465918  0.49995513    -0.77500
C173        C  0.67596627  0.05550301  0.49317522     0.83300
N174        N  0.67831630  0.07865759  0.48270445    -0.79200
C175        C  0.32504158  0.85351086  0.56658136     0.80800
N176        N  0.29358317  0.85684122  0.56348117    -0.77500
C177        C  0.29517944  0.87937381  0.55289795     0.83200
N178        N  0.32794339  0.89762542  0.54519506    -0.77500
C179        C  0.35918803  0.89369474  0.54802850     0.83300
N180        N  0.35751901  0.87172882  0.55877479    -0.79200
C181        C  0.65584108  0.50959890  0.23212119     0.80800
N182        N  0.62316253  0.50870005  0.22745913    -0.77500
C183        C  0.62478701  0.52934946  0.21624394     0.83200
N184        N  0.65965815  0.55146637  0.20986454    -0.77500
C185        C  0.69240915  0.55242068  0.21439466     0.83300
N186        N  0.69012819  0.53100282  0.22539820    -0.79200
C187        C  0.98509038  0.73973813  0.14637324     0.80800
N188        N  0.95201931  0.72190698  0.15394674    -0.77500
C189        C  0.95095141  0.70369090  0.16569536     0.83200
N190        N  0.98316017  0.70257439  0.16961901    -0.77500
C191        C  0.01620972  0.71974119  0.16197981     0.83300
N192        N  0.01705044  0.73840393  0.15039014    -0.79200
C193        C  0.86694660  0.28642955  0.97777046     0.67600
N194        N  0.88850109  0.32123496  0.98428260    -0.77500
C195        C  0.91139262  0.32454364  0.99493305     0.83200
N196        N  0.91214837  0.29238984  0.99931187    -0.77500
C197        C  0.89029000  0.25716516  0.99309126     0.83300
N198        N  0.86795377  0.25441042  0.98227264    -0.79200
C199        C  0.11200994  0.61865965  0.06058583     0.80800
N200        N  0.09043696  0.58556232  0.05320216    -0.77500
C201        C  0.07143043  0.58621973  0.04187004     0.83200
N202        N  0.07388036  0.62052409  0.03823508    -0.77500
C203        C  0.09511166  0.65376358  0.04557615     0.83300
N204        N  0.11407188  0.65269558  0.05680985    -0.79200
C205        C  0.30549227  0.39624231  0.80755962     0.80800
N206        N  0.27333344  0.37992066  0.81563134    -0.77500
C207        C  0.27256712  0.36127764  0.82723389     0.83200
N208        N  0.30457269  0.35888958  0.83055960    -0.77500
C209        C  0.33710870  0.37501216  0.82262721     0.83300
N210        N  0.33719867  0.39356170  0.81105398    -0.79200
C211        C  0.98556803  0.17404962  0.90035544     0.80800
N212        N  0.02017484  0.19255907  0.89354692    -0.77500
C213        C  0.02284739  0.20929162  0.88135297     0.83200
N214        N  0.99080159  0.20794534  0.87596568    -0.77500
C215        C  0.95582711  0.18936038  0.88249192     0.83300
N216        N  0.95339921  0.17247769  0.89473654    -0.79200
O217        O  0.62322818  0.21356904  0.81869979    -0.85900
O218        O  0.77023674  0.37778469  0.86342191    -0.86100
O219        O  0.72706998  0.33698702  0.82015666    -0.87800
O220        O  0.74098849  0.25708218  0.84695494    -0.86500
O221        O  0.70869411  0.22198429  0.86587093    -0.86100
O222        O  0.68872232  0.36518618  0.82014249    -0.87500
O223        O  0.77374014  0.34672382  0.84439722    -0.86000
O224        O  0.68995801  0.25147554  0.81939711    -0.85500
Zr225      Zr  0.70853569  0.29292425  0.83940480     2.84300
O226        O  0.70813870  0.29132115  0.86298886    -1.07500
O227        O  0.65035428  0.28746708  0.83155195    -1.08200
C228        C  0.65769328  0.22561665  0.81379741     1.07200
C229        C  0.78886097  0.37413818  0.85332073     1.07100
C230        C  0.71560031  0.35955425  0.81509413     1.10100
C231        C  0.73663030  0.23458945  0.85712874     1.07900
H232        H  0.72334676  0.37014847  0.84417777     0.33400
O233        O  0.70210092  0.34531086  0.84734331    -1.28500
H234        H  0.65946769  0.21249759  0.84322590     0.33100
O235        O  0.65586146  0.23325913  0.84670712    -1.30100
O236        O  0.67529972  0.35739887  0.89074307    -0.85900
O237        O  0.52964930  0.19286883  0.84658606    -0.87400
O238        O  0.68002903  0.40796663  0.84805120    -0.86000
O239        O  0.69533625  0.25740693  0.89032983    -0.86000
O240        O  0.61954362  0.16405989  0.86279227    -0.85800
O241        O  0.59730893  0.31314549  0.82071289    -0.85600
O242        O  0.55576198  0.31330772  0.86238606    -0.85900
O243        O  0.56946880  0.23244826  0.88885581    -0.85400
O244        O  0.58887840  0.34953085  0.84375501    -0.86500
O245        O  0.60661906  0.20312332  0.88872876    -0.85600
O246        O  0.71424938  0.40914109  0.86691301    -0.86000
O247        O  0.56853888  0.24617471  0.82058610    -0.85700
O248        O  0.58620998  0.16230205  0.84373214    -0.85400
O249        O  0.72799217  0.32468020  0.89003197    -0.85800
O250        O  0.60836671  0.32118902  0.89050656    -0.86100
O251        O  0.52488700  0.22461610  0.86526653    -0.87400
Zr252      Zr  0.70177255  0.34337579  0.87091840     2.83100
Zr253      Zr  0.59751467  0.22775338  0.83886189     2.83500
Zr254      Zr  0.64392507  0.33978157  0.83948877     2.84100
Zr255      Zr  0.65415695  0.23219353  0.87036240     2.83400
Zr256      Zr  0.58991306  0.27938273  0.87042456     2.84200
O257        O  0.59620116  0.22691207  0.86241041    -1.08000
O258        O  0.64352446  0.33896395  0.86315680    -1.07500
C259        C  0.64139930  0.34641087  0.89590840     1.07200
C260        C  0.51059533  0.19670089  0.85646315     1.09800
C261        C  0.70247878  0.42537925  0.85833249     1.07300
C262        C  0.71965017  0.29138091  0.89533378     1.07700
C263        C  0.59751948  0.14611998  0.85258402     1.07300
C264        C  0.57265257  0.27865768  0.81597858     1.06800
C265        C  0.55995221  0.33560118  0.85215752     1.07200
C266        C  0.57934748  0.20836323  0.89361869     1.06800
H267        H  0.56659878  0.27580625  0.84361937     0.33400
O268        O  0.59119537  0.27975186  0.84691829    -1.29100
H269        H  0.64738759  0.28341013  0.88799361     0.33500
O270        O  0.64797992  0.28438400  0.87827444    -1.30500
O271        O  0.92793638  0.86928186  0.98686130    -0.85900
O272        O  0.94771014  0.03590318  0.03050317    -0.86100
O273        O  0.85512768  0.91015710  0.01570071    -0.87800
O274        O  0.94396603  0.99352366  0.98799218    -0.86500
O275        O  0.01104879  0.02669554  0.98739422    -0.86100
O276        O  0.85595556  0.87612541  0.03423135    -0.87500
O277        O  0.91094932  0.00226869  0.01219002    -0.86000
O278        O  0.89555153  0.90350627  0.98837622    -0.85500
Zr279      Zr  0.92264453  0.94902347  0.00721368     2.84300
O280        O  0.98119579  0.00411892  0.01419518    -1.07500
O281        O  0.92074560  0.89217164  0.01469613    -1.08200
C282        C  0.90239769  0.87814062  0.98276950     1.07200
C283        C  0.92375467  0.03055554  0.02077515     1.07100
C284        C  0.83828491  0.88666605  0.02581378     1.10100
C285        C  0.97725357  0.01908659  0.98288889     1.07900
H286        H  0.90416282  0.95264866  0.03445974     0.33400
O287        O  0.92543472  0.95032610  0.03078129    -1.28500
H288        H  0.97478279  0.94606514  0.98849137     0.33100
O289        O  0.97576868  0.94597983  0.99821353    -1.30100
O290        O  0.03039695  0.02512729  0.05620103    -0.85900
O291        O  0.01398375  0.86014572  0.01211215    -0.87400
O292        O  0.90697913  0.91828079  0.05808034    -0.86000
O293        O  0.06587874  0.06926433  0.01268543    -0.86000
O294        O  0.05270462  0.97663445  0.98599761    -0.85800
O295        O  0.88891208  0.82559340  0.02986094    -0.85600
O296        O  0.01134279  0.89741238  0.05565492    -0.85900
O297        O  0.10113477  0.98171882  0.02805922    -0.85400
O298        O  0.94427284  0.86640070  0.05647683    -0.86500
O299        O  0.10081537  0.01677481  0.00973010    -0.85600
O300        O  0.94171536  0.98545329  0.05733667    -0.86000
O301        O  0.92001689  0.82274235  0.01071690    -0.85700
O302        O  0.01808319  0.90924332  0.98646623    -0.85400
O303        O  0.03622675  0.07097021  0.03238296    -0.85800
O304        O  0.06101936  0.98918834  0.05563427    -0.86100
O305        O  0.05169296  0.89396208  0.03032934    -0.87400
Zr306      Zr  0.98444322  0.00456531  0.03767916     2.83100
Zr307      Zr  0.97358751  0.88865176  0.00577267     2.83500
Zr308      Zr  0.92313860  0.89286317  0.03822724     2.84100
Zr309      Zr  0.03401765  0.00080298  0.00546195     2.83400
Zr310      Zr  0.03426501  0.94301700  0.03662784     2.84200
O311        O  0.03159104  0.94339241  0.01304415    -1.08000
O312        O  0.98170322  0.94719287  0.04542006    -1.07500
C313        C  0.05481820  0.01567976  0.06082297     1.07200
C314        C  0.03998330  0.86679564  0.02126527     1.09800
C315        C  0.91631551  0.95251147  0.06274896     1.07300
C316        C  0.06230036  0.08702181  0.02303545     1.07700
C317        C  0.04370990  0.94258637  0.98130144     1.07300
C318        C  0.89252068  0.80745609  0.01962785     1.06800
C319        C  0.97771074  0.87266655  0.06078952     1.07200
C320        C  0.11812174  0.00560969  0.01812879     1.06800
H321        H  0.97347448  0.86401260  0.03246291     0.33400
O322        O  0.97549222  0.88818384  0.02941279    -1.29100
H323        H  0.06180241  0.02248805  0.03203860     0.33500
O324        O  0.03727334  0.00056064  0.02902462    -1.30500
O325        O  0.69485753  0.35657601  0.39029283    -0.85900
O326        O  0.67274287  0.19131991  0.34630368    -0.86100
O327        O  0.67300332  0.23787410  0.38951045    -0.87800
O328        O  0.76638144  0.31438431  0.36168414    -0.86500
O329        O  0.76901981  0.34910139  0.34283609    -0.86100
O330        O  0.60655120  0.21107993  0.39012858    -0.87500
O331        O  0.70850818  0.22331817  0.36509369    -0.86000
O332        O  0.72533556  0.32043633  0.38910958    -0.85500
Zr333      Zr  0.69866306  0.27824717  0.36952952     2.84300
O334        O  0.69827976  0.27896135  0.34602290    -1.07500
O335        O  0.64735965  0.28526385  0.37763447    -1.08200
C336        C  0.71772707  0.34499368  0.39491564     1.07200
C337        C  0.69538582  0.19536379  0.35633158     1.07100
C338        C  0.63909358  0.21676250  0.39502316     1.10100
C339        C  0.78472876  0.33749744  0.35166706     1.07900
H340        H  0.63456804  0.20093691  0.36594066     0.33400
O341        O  0.63846495  0.22553545  0.36250624    -1.28500
H342        H  0.73119069  0.35862605  0.36529970     0.33100
O343        O  0.70634233  0.33782507  0.36202124    -1.30100
O344        O  0.59394881  0.20723154  0.32017092    -0.85900
O345        O  0.61847438  0.37641794  0.36415385    -0.87400
O346        O  0.55423474  0.16482879  0.36348760    -0.86000
O347        O  0.72069964  0.31155732  0.31908248    -0.86000
O348        O  0.73961974  0.40668456  0.34600499    -0.85800
O349        O  0.57386599  0.26122357  0.39030463    -0.85600
O350        O  0.52501902  0.25535208  0.34628362    -0.85900
O351        O  0.61767583  0.33640558  0.32028060    -0.85400
O352        O  0.52184824  0.22183662  0.36562680    -0.86500
O353        O  0.68458882  0.36604251  0.31983575    -0.85600
O354        O  0.58459336  0.16068874  0.34437038    -0.86000
O355        O  0.61262453  0.32824114  0.38993751    -0.85700
O356        O  0.70850951  0.40960157  0.36504661    -0.85400
O357        O  0.68427077  0.24430285  0.32004041    -0.85800
O358        O  0.56575677  0.24560866  0.32029656    -0.86100
O359        O  0.58269236  0.34492351  0.34538549    -0.87400
Zr360      Zr  0.63881421  0.22584057  0.33896718     2.83100
Zr361      Zr  0.65468733  0.34439093  0.37027960     2.83500
Zr362      Zr  0.58728593  0.23358472  0.37043435     2.84100
Zr363      Zr  0.70416584  0.33815420  0.33838527     2.83400
Zr364      Zr  0.59345113  0.29150302  0.33921868     2.84200
O365        O  0.65280398  0.34479399  0.34669678    -1.08000
O366        O  0.58677497  0.23259039  0.34691628    -1.07500
C367        C  0.57074927  0.21815062  0.31537488     1.07200
C368        C  0.59482809  0.37194182  0.35451424     1.09800
C369        C  0.55765829  0.14579061  0.35350053     1.07300
C370        C  0.71032288  0.27693635  0.31458027     1.07700
C371        C  0.73626751  0.42501380  0.35626841     1.07300
C372        C  0.58637852  0.29576775  0.39535628     1.06800
C373        C  0.50662026  0.23317594  0.35645833     1.07200
C374        C  0.65155180  0.36069640  0.31532851     1.06800
H375        H  0.57403373  0.29641099  0.36629568     0.33400
O376        O  0.59462730  0.29274587  0.36278424    -1.29100
H377        H  0.64450255  0.28465682  0.32125064     0.33500
O378        O  0.64501673  0.28477110  0.33097969    -1.30500
O379        O  0.40478562  0.74203279  0.67687746    -0.85900
O380        O  0.23453557  0.59488425  0.71953676    -0.86100
O381        O  0.28407132  0.71180506  0.69277265    -0.87800
O382        O  0.36279239  0.69823400  0.72011296    -0.86500
O383        O  0.39073924  0.65971968  0.72058467    -0.86100
O384        O  0.25079010  0.68031105  0.67367607    -0.87500
O385        O  0.27387110  0.66214254  0.71930897    -0.86000
O386        O  0.37267885  0.74554998  0.69550097    -0.85500
Zr387      Zr  0.31923304  0.67958904  0.70064714     2.84300
O388        O  0.31111491  0.62043008  0.70904188    -1.07500
O389        O  0.31931540  0.67900086  0.67710192    -1.08200
C390        C  0.40029570  0.76103107  0.68665092     1.07200
C391        C  0.24605273  0.62962929  0.72418304     1.07100
C392        C  0.26176032  0.70759646  0.68262608     1.10100
C393        C  0.38589577  0.68754588  0.72521504     1.07900
H394        H  0.23926323  0.63015608  0.69566229     0.33400
O395        O  0.26045214  0.62672309  0.69261542    -1.28500
H396        H  0.39661789  0.69469240  0.69693842     0.33100
O397        O  0.37209018  0.67340426  0.69362096    -1.30100
O398        O  0.21962000  0.49934669  0.69291123    -0.85900
O399        O  0.39226584  0.64773263  0.65151611    -0.87400
O400        O  0.19180926  0.58942033  0.67605481    -0.86000
O401        O  0.33587460  0.56809316  0.72051030    -0.86000
O402        O  0.43112287  0.64656701  0.69382978    -0.85800
O403        O  0.28813348  0.66959911  0.64992735    -0.85600
O404        O  0.26859089  0.54469907  0.64995286    -0.85900
O405        O  0.34358547  0.53045499  0.67764309    -0.85400
O406        O  0.23742611  0.58017642  0.64953742    -0.86500
O407        O  0.37647426  0.56130874  0.69694087    -0.85600
O408        O  0.18742073  0.55416099  0.69507531    -0.86000
O409        O  0.35497207  0.69905292  0.65058461    -0.85700
O410        O  0.43650753  0.68353801  0.67527590    -0.85400
O411        O  0.26904073  0.53839692  0.71968487    -0.85800
O412        O  0.25275458  0.49639071  0.67438931    -0.86100
O413        O  0.35462538  0.58065283  0.65184161    -0.87400
Zr414      Zr  0.25268506  0.56749308  0.70080001     2.83100
Zr415      Zr  0.37224346  0.67325797  0.67007097     2.83500
Zr416      Zr  0.26080341  0.62542148  0.66901897     2.84100
Zr417      Zr  0.36360860  0.61395431  0.70173616     2.83400
Zr418      Zr  0.30760491  0.56189103  0.67013928     2.84200
O419        O  0.36554775  0.61459439  0.67821970    -1.08000
O420        O  0.25388731  0.56680097  0.67720625    -1.07500
C421        C  0.22440859  0.48101210  0.68296292     1.07200
C422        C  0.38184105  0.61342928  0.64684146     1.09800
C423        C  0.17259931  0.56589181  0.68591041     1.07300
C424        C  0.30116019  0.54343596  0.72488769     1.07700
C425        C  0.45044483  0.66941720  0.68391943     1.07300
C426        C  0.32265490  0.69287316  0.64519865     1.06800
C427        C  0.24564635  0.55484669  0.64452396     1.07200
C428        C  0.36567085  0.53454284  0.68781978     1.06800
H429        H  0.31522792  0.62037747  0.65215728     0.33400
O430        O  0.31420489  0.62028172  0.66187940    -1.29100
H431        H  0.30132918  0.53619338  0.69687685     0.33500
O432        O  0.30512521  0.56093450  0.69364173    -1.30500
O433        O  0.28012522  0.53730463  0.15195515    -0.85900
O434        O  0.43714740  0.69876470  0.19434698    -0.86100
O435        O  0.38691406  0.66017597  0.15115070    -0.87800
O436        O  0.40111254  0.58299578  0.17913979    -0.86500
O437        O  0.36781618  0.54672401  0.19770021    -0.86100
O438        O  0.35225890  0.69235968  0.15144277    -0.87500
O439        O  0.43558294  0.66652494  0.17510392    -0.86000
O440        O  0.34712429  0.57165200  0.15205676    -0.85500
Zr441      Zr  0.36832216  0.61729742  0.17073211     2.84300
O442        O  0.36915066  0.61658011  0.19415218    -1.07500
O443        O  0.31118290  0.61490927  0.16335918    -1.08200
C444        C  0.31376742  0.54604056  0.14703501     1.07200
C445        C  0.45393554  0.69290462  0.18412041     1.07100
C446        C  0.37722302  0.68427716  0.14624305     1.10100
C447        C  0.39641448  0.56014772  0.18920969     1.07900
H448        H  0.38990024  0.69660363  0.17512812     0.33400
O449        O  0.36775314  0.67286447  0.17859276    -1.28500
H450        H  0.31565507  0.53744188  0.17499241     0.33100
O451        O  0.31394974  0.55938938  0.17841373    -1.30100
O452        O  0.34788853  0.69428727  0.22162257    -0.85900
O453        O  0.18999834  0.52739059  0.18068611    -0.87400
O454        O  0.35188205  0.73857047  0.17821767    -0.86000
O455        O  0.35816218  0.58131646  0.22094854    -0.86000
O456        O  0.27526187  0.49062536  0.19395667    -0.85800
O457        O  0.26385145  0.64531161  0.15275474    -0.85600
O458        O  0.23099029  0.65401735  0.19670522    -0.85900
O459        O  0.23956518  0.57144540  0.22244932    -0.85400
O460        O  0.26228568  0.68873519  0.17768483    -0.86500
O461        O  0.26949412  0.53489883  0.22117678    -0.85600
O462        O  0.38584069  0.73946303  0.19696177    -0.86000
O463        O  0.22934983  0.57814235  0.15308536    -0.85700
O464        O  0.23910111  0.49004259  0.17589674    -0.85400
O465        O  0.39319712  0.64890074  0.22084639    -0.85800
O466        O  0.28085970  0.65963310  0.22152111    -0.86100
O467        O  0.19123131  0.56266708  0.19904946    -0.87400
Zr468      Zr  0.36965204  0.67231541  0.20220256     2.83100
Zr469      Zr  0.25645457  0.55747963  0.17134943     2.83500
Zr470      Zr  0.31020796  0.67006495  0.17136638     2.84100
Zr471      Zr  0.31436292  0.55884835  0.20194252     2.83400
Zr472      Zr  0.25849549  0.61353466  0.20288126     2.84200
O473        O  0.25764310  0.55736585  0.19489264    -1.08000
O474        O  0.31272438  0.67070118  0.19490706    -1.07500
C475        C  0.31412544  0.68588674  0.22636167     1.07200
C476        C  0.17332335  0.53372063  0.19084255     1.09800
C477        C  0.37600884  0.75662033  0.18800705     1.07300
C478        C  0.38407136  0.61488991  0.22573661     1.07700
C479        C  0.25077750  0.47297031  0.18422071     1.07300
C480        C  0.23712985  0.61174744  0.14817634     1.06800
C481        C  0.23624419  0.67818107  0.18706587     1.07200
C482        C  0.24646057  0.54493168  0.22683193     1.06800
H483        H  0.23134628  0.61110826  0.17654762     0.33400
O484        O  0.25535512  0.61264120  0.17938350    -1.29100
H485        H  0.31533601  0.61489634  0.21990405     0.33500
O486        O  0.31489587  0.61482372  0.21017557    -1.30500
O487        O  0.00754435  0.02638812  0.55590014    -0.85900
O488        O  0.85827008  0.85817993  0.51270822    -0.86100
O489        O  0.88832384  0.98209147  0.52670590    -0.87800
O490        O  0.89822250  0.90337682  0.55500913    -0.86500
O491        O  0.93241310  0.87082722  0.55530584    -0.86100
O492        O  0.92177969  0.01598257  0.50783920    -0.87500
O493        O  0.85524207  0.89130220  0.53126190    -0.86000
O494        O  0.94056543  0.99192197  0.55544671    -0.85500
Zr495      Zr  0.91993735  0.94719275  0.53565301     2.84300
O496        O  0.92334887  0.89260745  0.52807904    -1.07500
O497        O  0.97395931  0.00489984  0.52766099    -1.08200
C498        C  0.97385619  0.01671426  0.56095345     1.07200
C499        C  0.84019136  0.86258933  0.52279143     1.07100
C500        C  0.89332940  0.00419585  0.51637921     1.10100
C501        C  0.90675419  0.87865619  0.56012866     1.07900
H502        H  0.89673970  0.94146951  0.50840065     0.33400
O503        O  0.92087730  0.94481175  0.51195661    -1.28500
H504        H  0.97612937  0.95014346  0.55381162     0.33100
O505        O  0.97635556  0.95015412  0.54407971    -1.30100
O506        O  0.95120989  0.87279422  0.48537392    -0.85900
O507        O  0.09939930  0.03806765  0.53031645    -0.87400
O508        O  0.93128423  0.97607175  0.48452195    -0.86000
O509        O  0.94235835  0.82681521  0.52907884    -0.86000
O510        O  0.02501860  0.92086814  0.55534943    -0.85800
O511        O  0.01091516  0.07127506  0.51154980    -0.85600
O512        O  0.05760021  0.99817797  0.48606058    -0.85900
O513        O  0.06796202  0.91951249  0.51407450    -0.85400
O514        O  0.02301261  0.02988636  0.48538145    -0.86500
O515        O  0.03338183  0.88465203  0.53268530    -0.85600
O516        O  0.89968651  0.90899226  0.48504480    -0.86000
O517        O  0.04457540  0.07352304  0.53064787    -0.85700
O518        O  0.05761167  0.98816366  0.55468282    -0.85400
O519        O  0.91127894  0.82434131  0.50941998    -0.85800
O520        O  0.01840072  0.90976150  0.48597619    -0.86100
O521        O  0.10259902  0.00598691  0.51160064    -0.87400
Zr522      Zr  0.92540728  0.89103296  0.50451014     2.83100
Zr523      Zr  0.03057253  0.00786406  0.53615825     2.83500
Zr524      Zr  0.97491809  0.00307393  0.50394378     2.84100
Zr525      Zr  0.97939887  0.89561909  0.53653574     2.83400
Zr526      Zr  0.03660444  0.95431963  0.50529826     2.84200
O527        O  0.03370211  0.95368025  0.52876588    -1.08000
O528        O  0.97943163  0.94924077  0.49667134    -1.07500
C529        C  0.98558497  0.88331892  0.48076177     1.07200
C530        C  0.11844906  0.03245383  0.52088181     1.09800
C531        C  0.90697056  0.94188532  0.47963991     1.07300
C532        C  0.92133715  0.80819063  0.51871107     1.07700
C533        C  0.05064877  0.95511733  0.55981433     1.07300
C534        C  0.03362993  0.08943445  0.52161453     1.06800
C535        C  0.04979734  0.02320437  0.48083603     1.07200
C536        C  0.06242993  0.89741287  0.52440784     1.06800
H537        H  0.05449937  0.03269490  0.50941255     0.33400
O538        O  0.03236219  0.00840240  0.51254302    -1.29100
H539        H  0.98578326  0.87423872  0.50988668     0.33500
O540        O  0.98272354  0.89569439  0.51294389    -1.30500
C541        C  0.96177457  0.13282068  0.93646590    -0.11300
C542        C  0.98213894  0.11239573  0.93692085     0.11300
C543        C  0.00422142  0.11318631  0.92559934    -0.03100
C544        C  0.00429935  0.13366867  0.91398774    -0.05800
C545        C  0.98320932  0.15346038  0.91328388    -0.16600
C546        C  0.96235480  0.15398747  0.92489096     0.02300
C547        C  0.97943732  0.08959776  0.94924822     0.12200
C548        C  0.02718021  0.09191662  0.92571950     0.62900
H549        H  0.02040929  0.13365825  0.90517340     0.12300
C550        C  0.94216381  0.17789791  0.92537798     0.55000
H551        H  0.94526233  0.13190940  0.94529714     0.08100
C552        C  0.00375633  0.10725664  0.96059079    -0.05700
C553        C  0.00212098  0.08305972  0.97130418    -0.06500
C554        C  0.97671477  0.04216070  0.97111945    -0.16100
C555        C  0.95173039  0.02460961  0.95983630    -0.01700
C556        C  0.95346951  0.04888198  0.94912380    -0.09200
C557        C  0.03097276  0.15145364  0.96141523     0.65100
H558        H  0.02026077  0.09602223  0.98008100     0.10500
C559        C  0.92437071  0.98042851  0.95879214     0.63500
H560        H  0.93496596  0.03617369  0.94036571     0.07900
F561        F  0.92949816  0.17933694  0.93826668    -0.19600
F562        F  0.90989782  0.16137684  0.91702873    -0.15800
F563        F  0.96784043  0.21605414  0.92130566    -0.19300
F564        F  0.00162140  0.05182509  0.92630064    -0.22700
F565        F  0.05171647  0.10328711  0.93677941    -0.24200
F566        F  0.05005692  0.09999446  0.91428772    -0.18100
F567        F  0.89443676  0.96820048  0.96809629    -0.20600
F568        F  0.94485179  0.96127211  0.96116877    -0.21800
F569        F  0.90760571  0.96942281  0.94613089    -0.19000
F570        F  0.05446907  0.16219643  0.97274839    -0.19100
F571        F  0.00910887  0.16968941  0.96196992    -0.22900
F572        F  0.05515736  0.16496912  0.95025020    -0.24500
C573        C  0.81860003  0.22545028  0.87329437    -0.11300
C574        C  0.82713343  0.20606166  0.86327660     0.11300
C575        C  0.80416485  0.19356099  0.85138558    -0.03100
C576        C  0.77506805  0.20378136  0.84953868    -0.05800
C577        C  0.76719506  0.22408207  0.85951637    -0.16600
C578        C  0.78902855  0.23462201  0.87168724     0.02300
C579        C  0.86057894  0.19986160  0.86595132     0.12200
C580        C  0.80980989  0.16892889  0.84091281     0.62900
H581        H  0.75769296  0.19531078  0.84042300     0.12300
C582        C  0.78143543  0.25561740  0.88301718     0.55000
H583        H  0.83569263  0.23351054  0.88248198     0.08100
C584        C  0.89976352  0.23132352  0.86510978    -0.05700
C585        C  0.92971163  0.22625597  0.87051080    -0.06500
C586        C  0.92195991  0.19079536  0.87656932    -0.16100
C587        C  0.88306285  0.15828219  0.87635396    -0.01700
C588        C  0.85285752  0.16379866  0.87136818    -0.09200
C589        C  0.90985520  0.27030392  0.85866131     0.65100
H590        H  0.95957920  0.25061276  0.87036613     0.10500
C591        C  0.87342451  0.11762630  0.88085119     0.63500
H592        H  0.82269189  0.14019763  0.87202232     0.07900
F593        F  0.80997178  0.26860482  0.89289253    -0.19600
F594        F  0.74595659  0.22997618  0.88897693    -0.15800
F595        F  0.78085179  0.28798257  0.87802106    -0.19300
F596        F  0.80188985  0.13369863  0.84660636    -0.22700
F597        F  0.84790563  0.18859597  0.83624469    -0.24200
F598        F  0.78508283  0.16058751  0.82999888    -0.18100
F599        F  0.83561052  0.08931095  0.87737523    -0.20600
F600        F  0.87684973  0.11671076  0.89466774    -0.21800
F601        F  0.89866933  0.10783880  0.87472996    -0.19000
F602        F  0.94988299  0.29574081  0.85789609    -0.19100
F603        F  0.89406314  0.28849161  0.86608965    -0.22900
F604        F  0.89504213  0.26397547  0.84571240    -0.24500
C605        C  0.27573100  0.48889497  0.75864517    -0.11300
C606        C  0.30369335  0.47716589  0.75907661     0.11300
C607        C  0.32801636  0.48384008  0.74775180    -0.03100
C608        C  0.32560184  0.50502694  0.73676080    -0.05800
C609        C  0.29889225  0.51853358  0.73653208    -0.16600
C610        C  0.27260704  0.50933316  0.74751154     0.02300
C611        C  0.30599990  0.45717904  0.77147957     0.12200
C612        C  0.35624470  0.46854187  0.74724471     0.62900
H613        H  0.34472446  0.51122236  0.72816002     0.12300
C614        C  0.24198966  0.52158717  0.74770295     0.55000
H615        H  0.25650943  0.48211471  0.76724800     0.08100
C616        C  0.32702973  0.47851616  0.78305061    -0.05700
C617        C  0.32666753  0.45754685  0.79461872    -0.06500
C618        C  0.30564799  0.41634257  0.79494339    -0.16100
C619        C  0.28472148  0.39509766  0.78338877    -0.01700
C620        C  0.28500403  0.41597446  0.77183796    -0.09200
C621        C  0.34961155  0.52318285  0.78316420     0.65100
H622        H  0.34244856  0.47315405  0.80358723     0.10500
C623        C  0.26274466  0.35054255  0.78326440     0.63500
H624        H  0.26866745  0.40028760  0.76296160     0.07900
F625        F  0.22245969  0.51315992  0.75992059    -0.19600
F626        F  0.21450683  0.50167499  0.73775789    -0.15800
F627        F  0.25956959  0.56158670  0.74553813    -0.19300
F628        F  0.33584379  0.42815791  0.74861569    -0.22700
F629        F  0.38318202  0.48478691  0.75756253    -0.24200
F630        F  0.37651754  0.47759962  0.73515832    -0.18100
F631        F  0.23312022  0.33613552  0.79275914    -0.20600
F632        F  0.28821562  0.33739349  0.78626036    -0.21800
F633        F  0.24614332  0.33553270  0.77081426    -0.19000
F634        F  0.36738996  0.53802932  0.79547947    -0.19100
F635        F  0.32463652  0.53719921  0.78062633    -0.22900
F636        F  0.37840482  0.53725560  0.77337987    -0.24500
C637        C  0.44035042  0.39108399  0.82802224    -0.11300
C638        C  0.43168242  0.35724935  0.83534375     0.11300
C639        C  0.39233901  0.32971567  0.83859691    -0.03100
C640        C  0.36272532  0.33662991  0.83406733    -0.05800
C641        C  0.37099722  0.37021073  0.82649308    -0.16600
C642        C  0.41079149  0.39814601  0.82343049     0.02300
C643        C  0.46459143  0.35162793  0.83954984     0.12200
C644        C  0.38173822  0.29327217  0.84689724     0.62900
H645        H  0.33252946  0.31544516  0.83642124     0.12300
C646        C  0.42262773  0.43536386  0.81543680     0.55000
H647        H  0.47077781  0.41181637  0.82578151     0.08100
C648        C  0.48152304  0.33642619  0.83063884    -0.05700
C649        C  0.51265655  0.33210974  0.83528641    -0.06500
C650        C  0.52715912  0.34207413  0.84852008    -0.16100
C651        C  0.51003677  0.35718910  0.85742518    -0.01700
C652        C  0.47930363  0.36220364  0.85269607    -0.09200
C653        C  0.46676313  0.32478401  0.81628440     0.65100
H654        H  0.52580491  0.32038109  0.82858603     0.10500
C655        C  0.52489899  0.36915408  0.87165185     0.63500
H656        H  0.46622304  0.37428516  0.85926259     0.07900
F657        F  0.41146058  0.42578030  0.80213228    -0.19600
F658        F  0.46269962  0.46092976  0.81566956    -0.15800
F659        F  0.40518078  0.45505496  0.82079184    -0.19300
F660        F  0.39850176  0.30413992  0.85953132    -0.22700
F661        F  0.39523702  0.27120324  0.84061833    -0.24200
F662        F  0.34169913  0.26965049  0.84857912    -0.18100
F663        F  0.50574180  0.38522168  0.87839209    -0.20600
F664        F  0.56432459  0.39699648  0.87124312    -0.21800
F665        F  0.51902183  0.33660795  0.87882271    -0.19000
F666        F  0.48598223  0.30879479  0.80958649    -0.19100
F667        F  0.47267207  0.35739681  0.80915312    -0.22900
F668        F  0.42729406  0.29710683  0.81632698    -0.24500
C669        C  0.17437229  0.33019958  0.84477924    -0.11300
C670        C  0.16916073  0.29795844  0.85237020     0.11300
C671        C  0.19789305  0.28688283  0.85180967    -0.03100
C672        C  0.23087714  0.30846836  0.84350822    -0.05800
C673        C  0.23646060  0.34095228  0.83582606    -0.16600
C674        C  0.20789218  0.35260912  0.83672708     0.02300
C675        C  0.13237730  0.27530073  0.86032670     0.12200
C676        C  0.19385811  0.25246749  0.85999217     0.62900
H677        H  0.25247378  0.29952976  0.84283425     0.12300
C678        C  0.21267774  0.38895908  0.82967036     0.55000
H679        H  0.15159710  0.33760854  0.84520635     0.08100
C680        C  0.12614942  0.28901713  0.87276617    -0.05700
C681        C  0.09011733  0.26619243  0.87947160    -0.06500
C682        C  0.06072624  0.23033753  0.87418611    -0.16100
C683        C  0.06751120  0.21592347  0.86205656    -0.01700
C684        C  0.10289020  0.23932024  0.85510343    -0.09200
C685        C  0.15735444  0.32745283  0.87894206     0.65100
H686        H  0.08431912  0.27641599  0.88883542     0.10500
C687        C  0.03827278  0.17521845  0.85687286     0.63500
H688        H  0.10810365  0.22945939  0.84555848     0.07900
F689        F  0.18473598  0.39788942  0.83380713    -0.19600
F690        F  0.20880664  0.38295351  0.81589655    -0.15800
F691        F  0.24902598  0.42101879  0.83259447    -0.19300
F692        F  0.16153067  0.21791366  0.85576021    -0.22700
F693        F  0.18964999  0.25810388  0.87349839    -0.24200
F694        F  0.22628028  0.24827653  0.85863768    -0.18100
F695        F  0.00331662  0.17305263  0.85372504    -0.20600
F696        F  0.03170054  0.14768291  0.86670693    -0.21800
F697        F  0.05176087  0.16575088  0.84543139    -0.19000
F698        F  0.14593814  0.33418491  0.89136931    -0.19100
F699        F  0.16478615  0.35845795  0.87058141    -0.22900
F700        F  0.19147718  0.32664664  0.88073382    -0.24500
C701        C  0.19193677  0.64307321  0.12016725    -0.11300
C702        C  0.17629891  0.61008076  0.11179097     0.11300
C703        C  0.17812099  0.57669346  0.11573925    -0.03100
C704        C  0.19687294  0.57801135  0.12792390    -0.05800
C705        C  0.21439104  0.61176324  0.13614353    -0.16600
C706        C  0.21031879  0.64445587  0.13244614     0.02300
C707        C  0.15900082  0.61188202  0.09874761     0.12200
C708        C  0.16112160  0.54020650  0.10693675     0.62900
H709        H  0.19880138  0.55274262  0.13090997     0.12300
C710        C  0.22391699  0.68036150  0.14140141     0.55000
H711        H  0.18988140  0.66810567  0.11687964     0.08100
C712        C  0.12003157  0.60391554  0.09776705    -0.05700
C713        C  0.10555522  0.60569533  0.08500589    -0.06500
C714        C  0.12925629  0.61653580  0.07347761    -0.16100
C715        C  0.16854828  0.62577214  0.07451756    -0.01700
C716        C  0.18281227  0.62306372  0.08721388    -0.09200
C717        C  0.09437293  0.59491450  0.11018134     0.65100
H718        H  0.07576893  0.59947828  0.08394622     0.10500
C719        C  0.19500379  0.63837909  0.06224283     0.63500
H720        H  0.21275811  0.62977697  0.08827828     0.07900
F721        F  0.20963548  0.70398913  0.13704484    -0.19600
F722        F  0.26431639  0.70291941  0.14133849    -0.15800
F723        F  0.21051536  0.66863885  0.15441543    -0.19300
F724        F  0.18134067  0.54905448  0.09487836    -0.22700
F725        F  0.12213510  0.52668060  0.10429853    -0.24200
F726        F  0.16349333  0.51003569  0.11306579    -0.18100
F727        F  0.23238505  0.64658768  0.06543078    -0.20600
F728        F  0.19778206  0.67185624  0.05673085    -0.21800
F729        F  0.17963942  0.60869515  0.05273556    -0.19000
F730        F  0.05672626  0.58549633  0.10683670    -0.19100
F731        F  0.11011930  0.62743728  0.11850843    -0.22900
F732        F  0.09200006  0.56358057  0.11720439    -0.24500
C733        C  0.07464439  0.73786404  0.04504749    -0.11300
C734        C  0.08670206  0.75245588  0.03194699     0.11300
C735        C  0.10467699  0.73675869  0.02374519    -0.03100
C736        C  0.10820513  0.70531367  0.02875489    -0.05800
C737        C  0.09498335  0.68987104  0.04170695    -0.16600
C738        C  0.07834698  0.70660329  0.05010024     0.02300
C739        C  0.07651477  0.78155550  0.02682928     0.12200
C740        C  0.11905184  0.75260174  0.00968345     0.62900
H741        H  0.12070631  0.69198919  0.02249792     0.12300
C742        C  0.06251677  0.69004950  0.06401426     0.55000
H743        H  0.06093855  0.75034989  0.05111122     0.08100
C744        C  0.03840059  0.77007183  0.02218050    -0.05700
C745        C  0.02856749  0.79913177  0.01993923    -0.06500
C746        C  0.05534180  0.83922996  0.02200332    -0.16100
C747        C  0.09450454  0.85089351  0.02557137    -0.01700
C748        C  0.10412606  0.82166748  0.02817831    -0.09200
C749        C  0.00637312  0.72771971  0.01987808     0.65100
H750        H  0.99888468  0.79006906  0.01702594     0.10500
C751        C  0.12609513  0.89364540  0.02710017     0.63500
H752        H  0.13308121  0.82997388  0.03179342     0.07900
F753        F  0.03488438  0.65049127  0.06302264    -0.19600
F754        F  0.04491479  0.70874086  0.07005788    -0.15800
F755        F  0.09265846  0.69482090  0.07227712    -0.19300
F756        F  0.14808228  0.79168562  0.01047228    -0.22700
F757        F  0.08850234  0.74939381  0.00200299    -0.24200
F758        F  0.13431237  0.73232232  0.00317957    -0.18100
F759        F  0.16307413  0.89838845  0.02603220    -0.20600
F760        F  0.12272803  0.90689771  0.03962260    -0.21800
F761        F  0.12282298  0.91636027  0.01716310    -0.19000
F762        F  0.99115864  0.72414252  0.00706761    -0.19100
F763        F  0.97691784  0.71777952  0.02921794    -0.22900
F764        F  0.01905397  0.70110980  0.02094685    -0.24500
C765        C  0.88445504  0.17489131  0.01489150    -0.11300
C766        C  0.89740499  0.15674158  0.00582553     0.11300
C767        C  0.90633747  0.17040299  0.99235393    -0.03100
C768        C  0.90290496  0.20288175  0.98851843    -0.05800
C769        C  0.89174931  0.22229550  0.99778731    -0.16600
C770        C  0.88216816  0.20804659  0.01119851     0.02300
C771        C  0.90266828  0.12433425  0.01090673     0.12200
C772        C  0.91972694  0.15091816  0.98215956     0.62900
H773        H  0.90976333  0.21397212  0.97829504     0.12300
C774        C  0.86941610  0.22752898  0.02158187     0.55000
H775        H  0.87732640  0.16348578  0.02507243     0.08100
C776        C  0.93659688  0.13193491  0.01808161    -0.05700
C777        C  0.94094513  0.10008322  0.02186081    -0.06500
C778        C  0.91284795  0.06109497  0.01856157    -0.16100
C779        C  0.87754267  0.05342020  0.01213164    -0.01700
C780        C  0.87314625  0.08544264  0.00848333    -0.09200
C781        C  0.96849798  0.17363238  0.02145704     0.65100
H782        H  0.96742988  0.10572124  0.02693873     0.10500
C783        C  0.84451360  0.01197714  0.00902555     0.63500
H784        H  0.84702063  0.08045800  0.00328225     0.07900
F785        F  0.90043398  0.26438631  0.02467708    -0.19600
F786        F  0.85693775  0.20606855  0.03342752    -0.15800
F787        F  0.83880523  0.23099201  0.01655462    -0.19300
F788        F  0.89050881  0.11234120  0.98022209    -0.22700
F789        F  0.95294253  0.15160010  0.98676707    -0.24200
F790        F  0.92842731  0.16975448  0.96979344    -0.18100
F791        F  0.81020348  0.01126701  0.00582397    -0.20600
F792        F  0.83702149  0.98794071  0.02012628    -0.21800
F793        F  0.85450738  0.99700503  0.99813173    -0.19000
F794        F  0.99970677  0.17456530  0.02803769    -0.19100
F795        F  0.95361223  0.19096594  0.02977640    -0.22900
F796        F  0.98255030  0.19554997  0.00978180    -0.24500
C797        C  0.81720542  0.26473688  0.94316309    -0.11300
C798        C  0.80282592  0.29060030  0.94325392     0.11300
C799        C  0.80647230  0.31237518  0.95501216    -0.03100
C800        C  0.82703647  0.30946412  0.96607213    -0.05800
C801        C  0.84274507  0.28448262  0.96594123    -0.16600
C802        C  0.83685936  0.26084314  0.95435345     0.02300
C803        C  0.78224892  0.29261839  0.93105097     0.12200
C804        C  0.78801496  0.33790816  0.95593787     0.62900
H805        H  0.83069109  0.32660812  0.97504120     0.12300
C806        C  0.85153138  0.23208270  0.95354028     0.55000
H807        H  0.81272528  0.24747847  0.93415318     0.08100
C808        C  0.80240202  0.31770248  0.92005795    -0.05700
C809        C  0.78065442  0.31772309  0.90883033    -0.06500
C810        C  0.73999863  0.29193770  0.90799663    -0.16100
C811        C  0.72003531  0.26649685  0.91902403    -0.01700
C812        C  0.74168287  0.26756125  0.93039424    -0.09200
C813        C  0.84674766  0.34309623  0.92000625     0.65100
H814        H  0.79553935  0.33668375  0.90031888     0.10500
C815        C  0.67600812  0.23870159  0.91900808     0.63500
H816        H  0.72716392  0.24822242  0.93886294     0.07900
F817        F  0.84536440  0.21491892  0.94093028    -0.19600
F818        F  0.83183821  0.20225430  0.96283465    -0.15800
F819        F  0.89128162  0.25131768  0.95609436    -0.19300
F820        F  0.74783335  0.31464433  0.95481651    -0.22700
F821        F  0.80175772  0.36544714  0.94569943    -0.24200
F822        F  0.79627805  0.35778112  0.96808783    -0.18100
F823        F  0.66627599  0.20825421  0.91007567    -0.20600
F824        F  0.65738152  0.25882766  0.91532040    -0.21800
F825        F  0.66216797  0.22241036  0.93160591    -0.19000
F826        F  0.86046819  0.36612120  0.90852697    -0.19100
F827        F  0.86301469  0.31937950  0.92046703    -0.22900
F828        F  0.85937137  0.36774586  0.93106493    -0.24500
C829        C  0.01182153  0.51045702  0.01434569    -0.11300
C830        C  0.99882688  0.47533187  0.02144270     0.11300
C831        C  0.00972723  0.47652303  0.03506147    -0.03100
C832        C  0.03272719  0.51326562  0.04126696    -0.05800
C833        C  0.04605406  0.54892426  0.03427027    -0.16600
C834        C  0.03530969  0.54746700  0.02044812     0.02300
C835        C  0.97579665  0.43750834  0.01414179     0.12200
C836        C  0.99785091  0.43903882  0.04292061     0.62900
H837        H  0.04079346  0.51419791  0.05173201     0.12300
C838        C  0.04910259  0.58416680  0.01188631     0.55000
H839        H  0.00357185  0.50845628  0.00384737     0.08100
C840        C  0.93506043  0.41991529  0.01188151    -0.05700
C841        C  0.91522970  0.38303057  0.00548918    -0.06500
C842        C  0.93460024  0.36299793  0.00173439    -0.16100
C843        C  0.97545718  0.38089528  0.00389778    -0.01700
C844        C  0.99549295  0.41845617  0.00976746    -0.09200
C845        C  0.91257864  0.43960032  0.01642483     0.65100
H846        H  0.88409065  0.36903879  0.00361795     0.10500
C847        C  0.99794701  0.36060116  0.00014628     0.63500
H848        H  0.02674830  0.43286620  0.01144910     0.07900
F849        F  0.03245215  0.60541508  0.01648747    -0.19600
F850        F  0.03858681  0.57518879  0.99849033    -0.15800
F851        F  0.08946027  0.60710218  0.01239045    -0.19300
F852        F  0.01633246  0.42038470  0.03758020    -0.22700
F853        F  0.95781261  0.41400456  0.04222381    -0.24200
F854        F  0.00805399  0.44652978  0.05638455    -0.18100
F855        F  0.03797363  0.38560460  0.00128042    -0.20600
F856        F  0.98998247  0.34747824  0.98696731    -0.21800
F857        F  0.98725852  0.32906995  0.00868112    -0.19000
F858        F  0.87320357  0.41728544  0.01327242    -0.19100
F859        F  0.92742033  0.47568213  0.01018393    -0.22900
F860        F  0.91582590  0.44497457  0.03023190    -0.24500
C861        C  0.18450505  0.73564467  0.17982388    -0.11300
C862        C  0.14549136  0.70540608  0.18108998     0.11300
C863        C  0.13671585  0.66757689  0.18524490    -0.03100
C864        C  0.16770813  0.66125234  0.18799486    -0.05800
C865        C  0.20691208  0.69072509  0.18599012    -0.16600
C866        C  0.21568188  0.72889441  0.18203750     0.02300
C867        C  0.11436080  0.71252870  0.17631605     0.12200
C868        C  0.09486436  0.63326314  0.18580940     0.62900
H869        H  0.16131907  0.63208328  0.19079779     0.12300
C870        C  0.25731042  0.76230848  0.18004023     0.55000
H871        H  0.19019362  0.76412177  0.17641659     0.08100
C872        C  0.09549280  0.72643078  0.18485722    -0.05700
C873        C  0.06333661  0.72817105  0.17976337    -0.06500
C874        C  0.05087871  0.71798757  0.16635682    -0.16100
C875        C  0.07087697  0.70540084  0.15769432    -0.01700
C876        C  0.10245340  0.70298796  0.16290042    -0.09200
C877        C  0.11012930  0.74066272  0.19904892     0.65100
H878        H  0.04811654  0.73835701  0.18614043     0.10500
C879        C  0.05867856  0.69357175  0.14314443     0.63500
H880        H  0.11798281  0.69302779  0.15657270     0.07900
F881        F  0.25876111  0.79777613  0.17826867    -0.19600
F882        F  0.27329594  0.75544681  0.16872094    -0.15800
F883        F  0.27958973  0.76570050  0.19121767    -0.19300
F884        F  0.07966270  0.62419227  0.17291582    -0.22700
F885        F  0.07194308  0.64273960  0.19359475    -0.24200
F886        F  0.09273277  0.60001716  0.19130464    -0.18100
F887        F  0.06813043  0.72659146  0.13556562    -0.20600
F888        F  0.01883599  0.66743719  0.14240962    -0.21800
F889        F  0.07745486  0.67548519  0.13750123    -0.19000
F890        F  0.08518615  0.74920867  0.20607549    -0.19100
F891        F  0.14650648  0.77441433  0.19836566    -0.22900
F892        F  0.11331082  0.71244759  0.20623202    -0.24500
C893        C  0.00828742  0.81395234  0.11831029    -0.11300
C894        C  0.97913583  0.79089369  0.10893474     0.11300
C895        C  0.95364493  0.75037242  0.11149471    -0.03100
C896        C  0.95670788  0.73485179  0.12388676    -0.05800
C897        C  0.98512360  0.75821965  0.13344350    -0.16600
C898        C  0.01167058  0.79836692  0.13063557     0.02300
C899        C  0.97647921  0.81036058  0.09650939     0.12200
C900        C  0.92376185  0.72362500  0.10115445     0.62900
H901        H  0.93712410  0.70409051  0.12618871     0.12300
C902        C  0.04243628  0.82497356  0.14076509     0.55000
H903        H  0.02813772  0.84458725  0.11591763     0.08100
C904        C  0.95918576  0.83415003  0.09653349    -0.05700
C905        C  0.95920427  0.85303250  0.08450414    -0.06500
C906        C  0.97738276  0.85020015  0.07276711    -0.16100
C907        C  0.99485096  0.82654490  0.07277675    -0.01700
C908        C  0.99392357  0.80685575  0.08471273    -0.09200
C909        C  0.94162062  0.84027747  0.10927032     0.65100
H910        H  0.94617064  0.87137430  0.08427949     0.10500
C911        C  0.01454214  0.82216190  0.06030996     0.63500
H912        H  0.00782758  0.78933185  0.08505652     0.07900
F913        F  0.02480823  0.82343259  0.15296710    -0.19600
F914        F  0.06248396  0.86372311  0.13650793    -0.15800
F915        F  0.06938113  0.81304435  0.14257631    -0.19300
F916        F  0.94279149  0.72176383  0.08974883    -0.22700
F917        F  0.89956853  0.73791632  0.09768604    -0.24200
F918        F  0.90059288  0.68575218  0.10600943    -0.18100
F919        F  0.02365550  0.79289021  0.06187665    -0.20600
F920        F  0.04888400  0.85705682  0.05782410    -0.21800
F921        F  0.99002465  0.81258573  0.04929135    -0.19000
F922        F  0.92464356  0.86284978  0.10688593    -0.19100
F923        F  0.97048019  0.85944033  0.11885232    -0.22900
F924        F  0.91316292  0.80443770  0.11437086    -0.24500
C925        C  0.68070499  0.47958251  0.26547986    -0.11300
C926        C  0.64955381  0.44092465  0.26678272     0.11300
C927        C  0.61862571  0.42580113  0.25729459    -0.03100
C928        C  0.62177052  0.44923576  0.24610820    -0.05800
C929        C  0.65409190  0.48732129  0.24440902    -0.16600
C930        C  0.68342002  0.50339931  0.25453499     0.02300
C931        C  0.64928888  0.41869289  0.27888447     0.12200
C932        C  0.58240466  0.38543172  0.25902486     0.62900
H933        H  0.59912197  0.43776527  0.23848528     0.12300
C934        C  0.71691409  0.54577423  0.25414251     0.55000
H935        H  0.70315297  0.49095357  0.27318219     0.08100
C936        C  0.67059562  0.39884520  0.27944777    -0.05700
C937        C  0.67151498  0.38120196  0.29168120    -0.06500
C938        C  0.65192226  0.38291537  0.30322285    -0.16100
C939        C  0.63153094  0.40386564  0.30271492    -0.01700
C940        C  0.63084130  0.42157343  0.29050371    -0.09200
C941        C  0.69229259  0.39643444  0.26719491     0.65100
H942        H  0.68693831  0.36516707  0.29226530     0.10500
C943        C  0.61153756  0.40868840  0.31504095     0.63500
H944        H  0.61587762  0.43805938  0.28989084     0.07900
F945        F  0.74399159  0.54990136  0.24452896    -0.19600
F946        F  0.73595527  0.55747156  0.26642909    -0.15800
F947        F  0.70289302  0.57059841  0.25113556    -0.19300
F948        F  0.56499331  0.38318484  0.27132316    -0.22700
F949        F  0.59241994  0.35671879  0.25847510    -0.24200
F950        F  0.55497455  0.37761483  0.24906144    -0.18100
F951        F  0.59881787  0.43497855  0.31274745    -0.20600
F952        F  0.63742339  0.42267994  0.32573854    -0.21800
F953        F  0.57923058  0.37304497  0.31847043    -0.19000
F954        F  0.71106439  0.37573234  0.26992232    -0.19100
F955        F  0.72019526  0.43376062  0.26305943    -0.22900
F956        F  0.66636765  0.37771004  0.25675764    -0.24500
C957        C  0.54780758  0.53297565  0.19411029    -0.11300
C958        C  0.52331007  0.53476872  0.20390571     0.11300
C959        C  0.52969972  0.53042666  0.21767950    -0.03100
C960        C  0.56326449  0.52895886  0.22127199    -0.05800
C961        C  0.58920725  0.52940988  0.21151039    -0.16600
C962        C  0.58012587  0.52919928  0.19764327     0.02300
C963        C  0.49133357  0.54143838  0.19941088     0.12200
C964        C  0.50067990  0.52629125  0.22847220     0.62900
H965        H  0.56949602  0.52743707  0.23180456     0.12300
C966        C  0.60307368  0.52324638  0.18657232     0.55000
H967        H  0.54145015  0.53475181  0.18360344     0.08100
C968        C  0.49830841  0.57957366  0.19647288    -0.05700
C969        C  0.46653184  0.58391634  0.19269136    -0.06500
C970        C  0.42821593  0.55166055  0.19192867    -0.16100
C971        C  0.42144253  0.51342243  0.19456804    -0.01700
C972        C  0.45339192  0.50897313  0.19811662    -0.09200
C973        C  0.53908896  0.61553748  0.19739399     0.65100
H974        H  0.47119771  0.61293361  0.19069672     0.10500
C975        C  0.38084134  0.47746187  0.19359861     0.63500
H976        H  0.44889207  0.48006439  0.20020986     0.07900
F977        F  0.63862088  0.55733672  0.18466488    -0.19600
F978        F  0.58304725  0.51349012  0.17444995    -0.15800
F979        F  0.60929753  0.49288682  0.18998465    -0.19300
F980        F  0.46553479  0.49186214  0.22639699    -0.22700
F981        F  0.49453584  0.55770509  0.22796549    -0.24200
F982        F  0.51368062  0.52476913  0.24128033    -0.18100
F983        F  0.36353778  0.47789887  0.18155191    -0.20600
F984        F  0.35816077  0.47720976  0.20421658    -0.21800
F985        F  0.38194743  0.44302809  0.19412195    -0.19000
F986        F  0.53884426  0.65002009  0.19516335    -0.19100
F987        F  0.56307068  0.61304956  0.18782067    -0.22900
F988        F  0.55461712  0.61778776  0.21005872    -0.24500
C989        C  0.78307286  0.63676119  0.19790809    -0.11300
C990        C  0.80355933  0.61786645  0.19428885     0.11300
C991        C  0.78857354  0.57808935  0.19789208    -0.03100
C992        C  0.75178449  0.55761130  0.20423852    -0.05800
C993        C  0.73041116  0.57603088  0.20739879    -0.16600
C994        C  0.74681321  0.61663169  0.20461704     0.02300
C995        C  0.84099215  0.64075694  0.18685691     0.12200
C996        C  0.81184464  0.55780552  0.19534738     0.62900
H997        H  0.73941120  0.52693411  0.20685640     0.12300
C998        C  0.72717989  0.63908290  0.20924132     0.55000
H999        H  0.79582798  0.66755272  0.19538685     0.08100
C1000       C  0.84212047  0.64343121  0.17263895    -0.05700
C1001       C  0.87869720  0.66403593  0.16620546    -0.06500
C1002       C  0.91389017  0.68299225  0.17352728    -0.16100
C1003       C  0.91243692  0.68248434  0.18785251    -0.01700
C1004       C  0.87578253  0.66083151  0.19425696    -0.09200
C1005       C  0.80478922  0.62521450  0.16433658     0.65100
H1006       H  0.88004142  0.66533273  0.15530375     0.10500
C1007       C  0.94889553  0.70526139  0.19643821     0.63500
H1008       H  0.87393249  0.65911108  0.20515409     0.07900
F1009       F  0.69314675  0.62696240  0.20203917    -0.19600
F1010       F  0.75108609  0.67916970  0.20735728    -0.15800
F1011       F  0.71846661  0.63252496  0.22284068    -0.19300
F1012       F  0.84673576  0.57700769  0.20235790    -0.22700
F1013       F  0.81985696  0.55840965  0.18176473    -0.24200
F1014       F  0.79176937  0.51900396  0.19953559    -0.18100
F1015       F  0.93961257  0.70811500  0.20968994    -0.20600
F1016       F  0.97170205  0.74307223  0.19151993    -0.21800
F1017       F  0.97026211  0.68645985  0.19635437    -0.19000
F1018       F  0.81251504  0.63105300  0.15065514    -0.19100
F1019       F  0.78284088  0.64203110  0.16787770    -0.22900
F1020       F  0.78293228  0.58522698  0.16663395    -0.24500
C1021       C  0.31422386  0.80898209  0.60138094    -0.11300
C1022       C  0.33004701  0.78485471  0.59903493     0.11300
C1023       C  0.34242906  0.78188672  0.58594824    -0.03100
C1024       C  0.33923998  0.80423041  0.57558794    -0.05800
C1025       C  0.32414002  0.82904827  0.57794090    -0.16600
C1026       C  0.31151964  0.83179926  0.59105502     0.02300
C1027       C  0.33088817  0.76123562  0.61040837     0.12200
C1028       C  0.35941437  0.75576362  0.58296988     0.62900
H1029       H  0.34875688  0.80265144  0.56548999     0.12300
C1030       C  0.29668170  0.85956173  0.59430652     0.55000
H1031       H  0.30413787  0.80985389  0.61145737     0.08100
C1032       C  0.35970194  0.77748124  0.62059892    -0.05700
C1033       C  0.35653103  0.75372382  0.63162720    -0.06500
C1034       C  0.32543170  0.71474662  0.63273770    -0.16100
C1035       C  0.29765967  0.69809439  0.62212053    -0.01700
C1036       C  0.30053204  0.72214216  0.61127368    -0.09200
C1037       C  0.39302613  0.81988875  0.61997067     0.65100
H1038       H  0.37767313  0.76592843  0.63972792     0.10500
C1039       C  0.26542566  0.65516005  0.62194194     0.63500
H1040       H  0.27864024  0.71070607  0.60338223     0.07900
F1041       F  0.29112074  0.86124205  0.60801744    -0.19600
F1042       F  0.26123930  0.84698775  0.58797937    -0.15800
F1043       F  0.32351763  0.89714172  0.58999815    -0.19300
F1044       F  0.33227364  0.71706473  0.58588452    -0.22700
F1045       F  0.39245217  0.76735702  0.59069903    -0.24200
F1046       F  0.36987979  0.75770505  0.56955106    -0.18100
F1047       F  0.23607877  0.64917063  0.63084899    -0.20600
F1048       F  0.28044598  0.63162645  0.62548293    -0.21800
F1049       F  0.24896890  0.64348882  0.60925815    -0.19000
F1050       F  0.41914942  0.82890667  0.63048490    -0.19100
F1051       F  0.37832414  0.84491229  0.62070376    -0.22900
F1052       F  0.41344159  0.82664009  0.60802957    -0.24500
C1053       C  0.22734970  0.91694528  0.54359874    -0.11300
C1054       C  0.19253256  0.88144544  0.54119734     0.11300
C1055       C  0.19125334  0.84527476  0.54287190    -0.03100
C1056       C  0.22554684  0.84596138  0.54683693    -0.05800
C1057       C  0.26043129  0.88146049  0.54918322    -0.16600
C1058       C  0.26133919  0.91759525  0.54793970     0.02300
C1059       C  0.15771007  0.88323671  0.53709171     0.12200
C1060       C  0.15390593  0.80627141  0.54046536     0.62900
H1061       H  0.22557831  0.81871126  0.54797052     0.12300
C1062       C  0.29719659  0.95631548  0.55187960     0.55000
H1063       H  0.22741873  0.94418359  0.54223479     0.08100
C1064       C  0.13528633  0.89012536  0.54657832    -0.05700
C1065       C  0.10353213  0.89295102  0.54189915    -0.06500
C1066       C  0.09374766  0.88939327  0.52813954    -0.16100
C1067       C  0.11559807  0.88137157  0.51868833    -0.01700
C1068       C  0.14774038  0.87892324  0.52337939    -0.09200
C1069       C  0.14512201  0.89505895  0.56154000     0.65100
H1070       H  0.08687086  0.89952731  0.54899052     0.10500
C1071       C  0.10467767  0.87439373  0.50386421     0.63500
H1072       H  0.16570528  0.87397343  0.51635011     0.07900
F1073       F  0.28974930  0.98695991  0.55173991    -0.19600
F1074       F  0.32753437  0.96550176  0.54301627    -0.15800
F1075       F  0.30868400  0.95342653  0.56478884    -0.19300
F1076       F  0.14289414  0.80338920  0.52711382    -0.22700
F1077       F  0.12415861  0.80346164  0.54852790    -0.24200
F1078       F  0.15865537  0.77469250  0.54339590    -0.18100
F1079       F  0.11307212  0.90920035  0.49771668    -0.20600
F1080       F  0.06518045  0.84734433  0.50255313    -0.21800
F1081       F  0.12516823  0.85977976  0.49712442    -0.19000
F1082       F  0.11801968  0.89927871  0.56902706    -0.19100
F1083       F  0.18137402  0.92809528  0.56359449    -0.22900
F1084       F  0.14567236  0.86254811  0.56637325    -0.24500
C1085       C  0.65962868  0.12046627  0.44351621    -0.11300
C1086       C  0.64529732  0.14613518  0.44490180     0.11300
C1087       C  0.63019100  0.14969331  0.45737649    -0.03100
C1088       C  0.63308464  0.12947007  0.46852953    -0.05800
C1089       C  0.64820154  0.10428105  0.46723480    -0.16600
C1090       C  0.66022821  0.09833484  0.45444205     0.02300
C1091       C  0.64335080  0.16601741  0.43267075     0.12200
C1092       C  0.60970613  0.17326380  0.45870335     0.62900
H1093       H  0.62269211  0.13242195  0.47830251     0.12300
C1094       C  0.67084897  0.06686232  0.45209010     0.55000
H1095       H  0.66933968  0.11715540  0.43364947     0.08100
C1096       C  0.67500881  0.20254764  0.42852624    -0.05700
C1097       C  0.67142201  0.21878525  0.41644674    -0.06500
C1098       C  0.63826826  0.19856163  0.40812817    -0.16100
C1099       C  0.60692964  0.16127349  0.41221659    -0.01700
C1100       C  0.61007917  0.14588468  0.42457527    -0.09200
C1101       C  0.71313866  0.22302458  0.43640409     0.65100
H1102       H  0.69519622  0.24712299  0.41321447     0.10500
C1103       C  0.57097293  0.13695270  0.40352289     0.63500
H1104       H  0.58678043  0.11749574  0.42799009     0.07900
F1105       F  0.70567665  0.07700246  0.45845857    -0.19600
F1106       F  0.67525994  0.06191499  0.43851685    -0.15800
F1107       F  0.64145781  0.03124009  0.45706623    -0.19300
F1108       F  0.57825215  0.15853088  0.44997058    -0.22700
F1109       F  0.63516541  0.21226510  0.45561050    -0.24200
F1110       F  0.59568815  0.17138485  0.47163026    -0.18100
F1111       F  0.54742542  0.09951968  0.40866863    -0.20600
F1112       F  0.58219370  0.13312204  0.39066550    -0.21800
F1113       F  0.54877850  0.15485749  0.40290444    -0.19000
F1114       F  0.73957588  0.25918058  0.43088839    -0.19100
F1115       F  0.73011452  0.19992607  0.43630565    -0.22900
F1116       F  0.70636198  0.22907043  0.44959778    -0.24500
C1117       C  0.80910980  0.02502324  0.51929411    -0.11300
C1118       C  0.80277685  0.02940623  0.50572579     0.11300
C1119       C  0.82788491  0.02882563  0.49576170    -0.03100
C1120       C  0.85704237  0.02064530  0.49972006    -0.05800
C1121       C  0.86282458  0.01468967  0.51334911    -0.16600
C1122       C  0.83893480  0.01804099  0.52335097     0.02300
C1123       C  0.76993113  0.03548656  0.50239151     0.12200
C1124       C  0.82427950  0.03754663  0.48109009     0.62900
H1125       H  0.87541286  0.01855971  0.49208446     0.12300
C1126       C  0.84597081  0.01663518  0.53825571     0.55000
H1127       H  0.79008056  0.02689672  0.52671984     0.08100
C1128       C  0.73118513  0.00357711  0.50109668    -0.05700
C1129       C  0.70138536  0.01160519  0.49810092    -0.06500
C1130       C  0.70921996  0.05022004  0.49648906    -0.16100
C1131       C  0.74781737  0.08221894  0.49830446    -0.01700
C1132       C  0.77765624  0.07413345  0.50126815    -0.09200
C1133       C  0.72138954  0.96131876  0.50288065     0.65100
H1134       H  0.67159692  0.98762857  0.49683294     0.10500
C1135       C  0.75739982  0.12459671  0.49752176     0.63500
H1136       H  0.80744948  0.09795172  0.50268957     0.07900
F1137       F  0.83499888  0.97880885  0.54210445    -0.19600
F1138       F  0.82511713  0.02883822  0.54603966    -0.15800
F1139       F  0.88512390  0.04156273  0.54080687    -0.19300
F1140       F  0.83088999  0.07531398  0.47994805    -0.22700
F1141       F  0.78725427  0.01142670  0.47631026    -0.24200
F1142       F  0.85119908  0.03475068  0.47300551    -0.18100
F1143       F  0.79499552  0.15048919  0.50196167    -0.20600
F1144       F  0.73174678  0.12974116  0.50551392    -0.21800
F1145       F  0.75452162  0.13412869  0.48433502    -0.19000
F1146       F  0.68178911  0.93493981  0.50128574    -0.19100
F1147       F  0.73186832  0.95610269  0.51565663    -0.22900
F1148       F  0.74141086  0.95243970  0.49346239    -0.24500
C1149       C  0.52200072  0.01174339  0.51807048    -0.11300
C1150       C  0.50378664  0.97075174  0.51823711     0.11300
C1151       C  0.51961884  0.95153033  0.51079931    -0.03100
C1152       C  0.55511894  0.97471692  0.50396062    -0.05800
C1153       C  0.57356980  0.01581870  0.50394572    -0.16600
C1154       C  0.55680323  0.03485545  0.51095093     0.02300
C1155       C  0.46710957  0.94917412  0.52591787     0.12200
C1156       C  0.49873106  0.90701693  0.50986928     0.62900
H1157       H  0.56837237  0.96098771  0.49831539     0.12300
C1158       C  0.57563288  0.07926476  0.51101807     0.55000
H1159       H  0.50840656  0.02543441  0.52354106     0.08100
C1160       C  0.46703491  0.94500634  0.54004988    -0.05700
C1161       C  0.43101088  0.92705571  0.54680389    -0.06500
C1162       C  0.39548688  0.91366266  0.53989759    -0.16100
C1163       C  0.39584305  0.91813260  0.52566621    -0.01700
C1164       C  0.43202432  0.93623134  0.51896196    -0.09200
C1165       C  0.50481993  0.95970624  0.54793818     0.65100
H1166       H  0.43040170  0.92375527  0.55765149     0.10500
C1167       C  0.35869380  0.90330999  0.51742655     0.63500
H1168       H  0.43342871  0.94097295  0.50817107     0.07900
F1169       F  0.55737329  0.09161374  0.52000854    -0.19600
F1170       F  0.57305305  0.09211731  0.49831528    -0.15800
F1171       F  0.61454345  0.09656284  0.51470152    -0.19300
F1172       F  0.46278500  0.89295860  0.50372987    -0.22700
F1173       F  0.49306713  0.89080655  0.52259822    -0.24200
F1174       F  0.51987289  0.89454753  0.50237916    -0.18100
F1175       F  0.34118207  0.92501863  0.52038530    -0.20600
F1176       F  0.33309166  0.86408244  0.52024805    -0.21800
F1177       F  0.36619884  0.90663083  0.50370612    -0.19000
F1178       F  0.49788900  0.95160103  0.56156939    -0.19100
F1179       F  0.52828721  0.99991900  0.54647479    -0.22900
F1180       F  0.52480358  0.94186573  0.54324804    -0.24500
C1181       C  0.21523171  0.76585812  0.66929628    -0.11300
C1182       C  0.23862817  0.80193443  0.67565985     0.11300
C1183       C  0.26499012  0.80523925  0.68582608    -0.03100
C1184       C  0.27010935  0.77302304  0.68822981    -0.05800
C1185       C  0.24967208  0.73770536  0.68083312    -0.16600
C1186       C  0.22003429  0.73344964  0.67164026     0.02300
C1187       C  0.23607250  0.83609352  0.67083486     0.12200
C1188       C  0.28800058  0.84284446  0.69390711     0.62900
H1189       H  0.29138982  0.77598172  0.69564164     0.12300
C1190       C  0.19350361  0.69560279  0.66408272     0.55000
H1191       H  0.19431001  0.76399629  0.66188961     0.08100
C1192       C  0.25692177  0.85755573  0.65925420    -0.05700
C1193       C  0.25287158  0.88923741  0.65497813    -0.06500
C1194       C  0.22862036  0.89962069  0.66186461    -0.16100
C1195       C  0.20671455  0.87736000  0.67315223    -0.01700
C1196       C  0.21076098  0.84565235  0.67745518    -0.09200
C1197       C  0.28306108  0.84675323  0.65140961     0.65100
H1198       H  0.26892210  0.90647744  0.64627293     0.10500
C1199       C  0.17871335  0.88671646  0.68039603     0.63500
H1200       H  0.19430364  0.82808579  0.68604626     0.07900
F1201       F  0.16257153  0.69641282  0.65795779    -0.19600
F1202       F  0.17774403  0.66428575  0.67292349    -0.15800
F1203       F  0.21445226  0.68979070  0.65412484    -0.19300
F1204       F  0.31027222  0.83909980  0.70386404    -0.22700
F1205       F  0.26258813  0.85217909  0.70012079    -0.24200
F1206       F  0.31276943  0.87339159  0.68550525    -0.18100
F1207       F  0.15761295  0.85936672  0.69031685    -0.20600
F1208       F  0.15244384  0.88684411  0.67126644    -0.21800
F1209       F  0.19937719  0.92320967  0.68641603    -0.19000
F1210       F  0.30183406  0.87237344  0.64082097    -0.19100
F1211       F  0.26088329  0.80938591  0.64612995    -0.22900
F1212       F  0.31134632  0.84774424  0.65979518    -0.24500
C1213       C  0.08272489  0.93547998  0.59378281    -0.11300
C1214       C  0.12273417  0.96352958  0.59365751     0.11300
C1215       C  0.13934175  0.98818699  0.58227725    -0.03100
C1216       C  0.11470930  0.98461382  0.57147925    -0.05800
C1217       C  0.07443778  0.95677276  0.57163312    -0.16600
C1218       C  0.05804602  0.93168692  0.58299793     0.02300
C1219       C  0.14631935  0.96605256  0.60566894     0.12200
C1220       C  0.18288237  0.01784575  0.58152710     0.62900
H1221       H  0.12689335  0.00319805  0.56268184     0.12300
C1222       C  0.01459802  0.90177673  0.58401424     0.55000
H1223       H  0.07094887  0.91650561  0.60250906     0.08100
C1224       C  0.14665015  0.98623610  0.61748987    -0.05700
C1225       C  0.16883139  0.98653787  0.62861462    -0.06500
C1226       C  0.18930068  0.96605085  0.62849632    -0.16100
C1227       C  0.18864120  0.94558009  0.61658996    -0.01700
C1228       C  0.16710914  0.94611770  0.60537486    -0.09200
C1229       C  0.12254828  0.00619041  0.61848595     0.65100
H1230       H  0.16913052  0.00170951  0.63774130     0.10500
C1231       C  0.21081207  0.92366690  0.61549306     0.63500
H1232       H  0.16569118  0.93030143  0.59627399     0.07900
F1233       F  0.00415071  0.88572333  0.59680556    -0.19600
F1234       F  0.00481334  0.87141581  0.57503489    -0.15800
F1235       F  0.99314846  0.91958593  0.58114724    -0.19300
F1236       F  0.20368253  0.99846421  0.58170667    -0.22700
F1237       F  0.19410383  0.04313988  0.59240206    -0.24200
F1238       F  0.19270038  0.04013620  0.56986103    -0.18100
F1239       F  0.21096441  0.91140709  0.60242693    -0.20600
F1240       F  0.19338802  0.89063905  0.62360333    -0.21800
F1241       F  0.24929569  0.94786603  0.61938787    -0.19000
F1242       F  0.12955837  0.02697695  0.63039104    -0.19100
F1243       F  0.08317925  0.97818788  0.61802394    -0.22900
F1244       F  0.13139677  0.03217405  0.60791208    -0.24500
C1245       C  0.36012725  0.38790448  0.71650029    -0.11300
C1246       C  0.38362977  0.40611777  0.70516423     0.11300
C1247       C  0.40806188  0.39270689  0.70002918    -0.03100
C1248       C  0.40771307  0.36074910  0.70642078    -0.05800
C1249       C  0.38387141  0.34222715  0.71766033    -0.16600
C1250       C  0.35929127  0.35551944  0.72273586     0.02300
C1251       C  0.38166248  0.43908171  0.69888100     0.12200
C1252       C  0.43395649  0.41181523  0.68779106     0.62900
H1253       H  0.42584349  0.34963334  0.70261479     0.12300
C1254       C  0.33165827  0.33491959  0.73441590     0.55000
H1255       H  0.34191201  0.39895777  0.72027588     0.08100
C1256       C  0.35005241  0.43261659  0.69053432    -0.05700
C1257       C  0.34783060  0.46518496  0.68616170    -0.06500
C1258       C  0.37589978  0.50368940  0.68994976    -0.16100
C1259       C  0.40952141  0.51024288  0.69721250    -0.01700
C1260       C  0.41123336  0.47755194  0.70186566    -0.09200
C1261       C  0.31749017  0.39149518  0.68690056     0.65100
H1262       H  0.32235961  0.46036666  0.68055746     0.10500
C1263       C  0.44321996  0.55114598  0.70037847     0.63500
H1264       H  0.43527833  0.48184027  0.70822672     0.07900
F1265       F  0.30932861  0.35173460  0.73748427    -0.19600
F1266       F  0.35285074  0.33707888  0.74572650    -0.15800
F1267       F  0.30651343  0.29590315  0.73121071    -0.19300
F1268       F  0.46149599  0.45041809  0.69065630    -0.22700
F1269       F  0.41155671  0.41093754  0.67698343    -0.24200
F1270       F  0.45361880  0.39273639  0.68399742    -0.18100
F1271       F  0.43429380  0.56559198  0.71166905    -0.20600
F1272       F  0.45049502  0.57614521  0.68957895    -0.21800
F1273       F  0.47727114  0.55063534  0.70291951    -0.19000
F1274       F  0.29314160  0.39218760  0.67704683    -0.19100
F1275       F  0.29512368  0.37333215  0.69819541    -0.22900
F1276       F  0.33297008  0.36946069  0.68205073    -0.24500
C1277       C  0.45390810  0.29101016  0.77256236    -0.11300
C1278       C  0.48037535  0.27807372  0.77017579     0.11300
C1279       C  0.48310227  0.26511833  0.75713326    -0.03100
C1280       C  0.45993266  0.26693492  0.74672663    -0.05800
C1281       C  0.43375939  0.28042009  0.74904228    -0.16600
C1282       C  0.43027197  0.29221971  0.76221549     0.02300
C1283       C  0.50456278  0.27828779  0.78165804     0.12200
C1284       C  0.50906937  0.24793149  0.75436334     0.62900
H1285       H  0.46150519  0.25705865  0.73668510     0.12300
C1286       C  0.40108208  0.30503923  0.76544578     0.55000
H1287       H  0.45200535  0.30024998  0.78267465     0.08100
C1288       C  0.54015199  0.31229565  0.78515852    -0.05700
C1289       C  0.56114042  0.31071031  0.79630814    -0.06500
C1290       C  0.54762397  0.27678849  0.80431090    -0.16100
C1291       C  0.51022588  0.24351797  0.80129612    -0.01700
C1292       C  0.48992521  0.24472155  0.78978678    -0.09200
C1293       C  0.55516362  0.35059682  0.77745856     0.65100
H1294       H  0.58799479  0.33672963  0.79906990     0.10500
C1295       C  0.49023919  0.20783647  0.81049823     0.63500
H1296       H  0.46183997  0.21959623  0.78714764     0.07900
F1297       F  0.41257247  0.34052119  0.75920435    -0.19600
F1298       F  0.39861229  0.30990367  0.77916124    -0.15800
F1299       F  0.36425297  0.27705260  0.76097211    -0.19300
F1300       F  0.49517312  0.21326943  0.76148084    -0.22700
F1301       F  0.54710106  0.27381363  0.75829808    -0.24200
F1302       F  0.50963726  0.23987582  0.74080718    -0.18100
F1303       F  0.49049910  0.21975814  0.82363582    -0.20600
F1304       F  0.50923385  0.18668633  0.80981882    -0.21800
F1305       F  0.45156563  0.18288260  0.80690702    -0.19000
F1306       F  0.59137397  0.37959051  0.78208144    -0.19100
F1307       F  0.52922213  0.36393330  0.77897188    -0.22900
F1308       F  0.55883456  0.34498308  0.76391383    -0.24500
C1309       C  0.29129199  0.15085177  0.70037012    -0.11300
C1310       C  0.31513950  0.13651916  0.69576761     0.11300
C1311       C  0.35533179  0.15643007  0.69922492    -0.03100
C1312       C  0.37021913  0.19007207  0.70737968    -0.05800
C1313       C  0.34653658  0.20467903  0.71189355    -0.16600
C1314       C  0.30627306  0.18470520  0.70847471     0.02300
C1315       C  0.29741894  0.10134162  0.68692786     0.12200
C1316       C  0.38239125  0.14222370  0.69437336     0.62900
H1317       H  0.40088897  0.20582652  0.71011598     0.12300
C1318       C  0.27904551  0.19832375  0.71362729     0.55000
H1319       H  0.26077986  0.13535996  0.69743772     0.08100
C1320       C  0.27475695  0.06284451  0.69214065    -0.05700
C1321       C  0.25879201  0.03107732  0.68308619    -0.06500
C1322       C  0.26494273  0.03659213  0.66909393    -0.16100
C1323       C  0.28893577  0.07518308  0.66396472    -0.01700
C1324       C  0.30370388  0.10701092  0.67299712    -0.09200
C1325       C  0.26688173  0.05539282  0.70715716     0.65100
H1326       H  0.24067898  0.00151220  0.68689476     0.10500
C1327       C  0.30103638  0.08283999  0.64923934     0.63500
H1328       H  0.32102360  0.13682559  0.66927912     0.07900
F1329       F  0.24035559  0.17187642  0.71048517    -0.19600
F1330       F  0.28883294  0.23403650  0.70788479    -0.15800
F1331       F  0.28199598  0.20222938  0.72750109    -0.19300
F1332       F  0.38377626  0.14254622  0.68045808    -0.22700
F1333       F  0.36899377  0.10443659  0.69892847    -0.24200
F1334       F  0.42024022  0.16586736  0.69902053    -0.18100
F1335       F  0.26924341  0.07465234  0.64127294    -0.20600
F1336       F  0.31608496  0.05952037  0.64532484    -0.21800
F1337       F  0.32963572  0.12162436  0.64701880    -0.19000
F1338       F  0.24790583  0.01570151  0.71019333    -0.19100
F1339       F  0.24355105  0.06995914  0.71144185    -0.22900
F1340       F  0.30165270  0.07370197  0.71425629    -0.24500
C1341       C  0.73876519  0.12844320  0.35517311    -0.11300
C1342       C  0.71996543  0.10394369  0.36632424     0.11300
C1343       C  0.69310850  0.10963561  0.37400586    -0.03100
C1344       C  0.68585712  0.13966094  0.37021327    -0.05800
C1345       C  0.70412904  0.16373086  0.35898721    -0.16600
C1346       C  0.73096825  0.15822715  0.35128627     0.02300
C1347       C  0.72702368  0.07105307  0.36940980     0.12200
C1348       C  0.67223222  0.08414566  0.38619381     0.62900
H1349       H  0.66574468  0.14474561  0.37605067     0.12300
C1350       C  0.75144060  0.18410980  0.33919651     0.55000
H1351       H  0.75927898  0.12371892  0.34945636     0.08100
C1352       C  0.70659208  0.03477928  0.36258628    -0.05700
C1353       C  0.71129434  0.00347795  0.36686713    -0.06500
C1354       C  0.73514429  0.00653529  0.37793714    -0.16100
C1355       C  0.75645579  0.04373040  0.38459696    -0.01700
C1356       C  0.75218246  0.07529615  0.38002376    -0.09200
C1357       C  0.67920283  0.02895871  0.35095307     0.65100
H1358       H  0.69538451  0.97585189  0.36156417     0.10500
C1359       C  0.78299567  0.05072510  0.39661678     0.63500
H1360       H  0.76754621  0.10355729  0.38500528     0.07900
F1361       F  0.72400332  0.18019509  0.32978182    -0.19600
F1362       F  0.77658860  0.17418633  0.33306181    -0.15800
F1363       F  0.77295760  0.22293591  0.34322816    -0.19300
F1364       F  0.69913442  0.09087756  0.39620224    -0.22700
F1365       F  0.65311900  0.04484902  0.38269391    -0.24200
F1366       F  0.64466044  0.09217834  0.39140948    -0.18100
F1367       F  0.81219477  0.04303400  0.39309650    -0.20600
F1368       F  0.76126246  0.02687307  0.40722784    -0.21800
F1369       F  0.80102685  0.08918136  0.40112128    -0.19000
F1370       F  0.66035301  0.99078768  0.34615853    -0.19100
F1371       F  0.70024345  0.05369350  0.34043831    -0.22900
F1372       F  0.65087109  0.03725448  0.35507456    -0.24500
C1373       C  0.87671672  0.96698387  0.44593014    -0.11300
C1374       C  0.84004249  0.93350619  0.44384935     0.11300
C1375       C  0.82625554  0.90176523  0.45301573    -0.03100
C1376       C  0.84892203  0.90577420  0.46451507    -0.05800
C1377       C  0.88524058  0.94009171  0.46700307    -0.16600
C1378       C  0.89977679  0.97107209  0.45728799     0.02300
C1379       C  0.81704811  0.93293757  0.43187440     0.12200
C1380       C  0.78793702  0.86376172  0.45056101     0.62900
H1381       H  0.83808180  0.88197794  0.47173965     0.12300
C1382       C  0.93966799  0.00815543  0.45852432     0.55000
H1383       H  0.88689248  0.99038152  0.43855628     0.08100
C1384       C  0.79425882  0.95125461  0.43204974    -0.05700
C1385       C  0.77415656  0.95067589  0.42026989    -0.06500
C1386       C  0.77689840  0.93331360  0.40828509    -0.16100
C1387       C  0.80085986  0.91610357  0.40800055    -0.01700
C1388       C  0.82040994  0.91613873  0.41987623    -0.09200
C1389       C  0.79229297  0.97245944  0.44451642     0.65100
H1390       H  0.75616073  0.96403669  0.42031282     0.10500
C1391       C  0.80699434  0.89893161  0.39516567     0.63500
H1392       H  0.83880467  0.90320161  0.41989254     0.07900
F1393       F  0.93950049  0.03084641  0.46911054    -0.19600
F1394       F  0.94978801  0.03100682  0.44698851    -0.15800
F1395       F  0.96801403  0.99819304  0.46060273    -0.19300
F1396       F  0.79010446  0.84713935  0.43857100    -0.22700
F1397       F  0.75746277  0.87112676  0.44982142    -0.24200
F1398       F  0.77955302  0.83664699  0.46074826    -0.18100
F1399       F  0.83701149  0.89095494  0.39651243    -0.20600
F1400       F  0.81662788  0.92526441  0.38464240    -0.21800
F1401       F  0.77321708  0.86417863  0.39202172    -0.19000
F1402       F  0.76697493  0.98655022  0.44282474    -0.19100
F1403       F  0.82903291  0.00405291  0.44721770    -0.22900
F1404       F  0.77957779  0.94735077  0.45547185    -0.24500
C1405       C  0.54757328  0.48943035  0.32841242    -0.11300
C1406       C  0.54239276  0.47985131  0.34214045     0.11300
C1407       C  0.53104312  0.50015752  0.35106666    -0.03100
C1408       C  0.52549309  0.53001821  0.34584227    -0.05800
C1409       C  0.53086880  0.53986771  0.33209430    -0.16600
C1410       C  0.54147286  0.51884066  0.32312462     0.02300
C1411       C  0.55285644  0.45095739  0.34692233     0.12200
C1412       C  0.52551655  0.49079124  0.36603899     0.62900
H1413       H  0.51747735  0.54646215  0.35252226     0.12300
C1414       C  0.54717748  0.52768389  0.30813169     0.55000
H1415       H  0.55694582  0.47378365  0.32188283     0.08100
C1416       C  0.52834752  0.41016297  0.34482622    -0.05700
C1417       C  0.54259926  0.38526302  0.34821632    -0.06500
C1418       C  0.58039193  0.39985211  0.35349060    -0.16100
C1419       C  0.60424396  0.44074844  0.35616377    -0.01700
C1420       C  0.59002326  0.46559347  0.35257828    -0.09200
C1421       C  0.48769723  0.39305706  0.33880572     0.65100
H1422       H  0.52456895  0.35402228  0.34637590     0.10500
C1423       C  0.64489161  0.45870372  0.36229631     0.63500
H1424       H  0.60821574  0.49707593  0.35386840     0.07900
F1425       F  0.51154346  0.51712178  0.30232775    -0.19600
F1426       F  0.56193863  0.50688878  0.30166644    -0.15800
F1427       F  0.57309710  0.56727507  0.30603070    -0.19300
F1428       F  0.56073907  0.49962055  0.37180834    -0.22700
F1429       F  0.49880602  0.45135994  0.36795623    -0.24200
F1430       F  0.51179568  0.51217681  0.37271586    -0.18100
F1431       F  0.66333356  0.49924429  0.36313769    -0.20600
F1432       F  0.66810804  0.44965334  0.35448041    -0.21800
F1433       F  0.64218210  0.44444525  0.37522956    -0.19000
F1434       F  0.46827761  0.35243346  0.33820835    -0.19100
F1435       F  0.49022458  0.40699134  0.32585169    -0.22900
F1436       F  0.46554525  0.40356198  0.34657491    -0.24500
C1437       C  0.44932201  0.62512335  0.28648063    -0.11300
C1438       C  0.45115652  0.60334823  0.27568063     0.11300
C1439       C  0.47062047  0.58194139  0.27721634    -0.03100
C1440       C  0.48806304  0.58352872  0.28967415    -0.05800
C1441       C  0.48627001  0.60527403  0.30057485    -0.16600
C1442       C  0.46570434  0.62578550  0.29907412     0.02300
C1443       C  0.43340554  0.60489383  0.26278027     0.12200
C1444       C  0.47349757  0.55801154  0.26575263     0.62900
H1445       H  0.50444962  0.56870949  0.29083116     0.12300
C1446       C  0.46066295  0.64830782  0.31052794     0.55000
H1447       H  0.43512443  0.64206874  0.28489283     0.08100
C1448       C  0.39234899  0.58518869  0.26099679    -0.05700
C1449       C  0.37773905  0.59001548  0.24874641    -0.06500
C1450       C  0.40272848  0.61327574  0.23831907    -0.16100
C1451       C  0.44372467  0.63171682  0.23990339    -0.01700
C1452       C  0.45842519  0.62812880  0.25235947    -0.09200
C1453       C  0.36407057  0.55915379  0.27191001     0.65100
H1454       H  0.34641281  0.57574051  0.24720857     0.10500
C1455       C  0.47158147  0.65320728  0.22833981     0.63500
H1456       H  0.48969969  0.64336586  0.25406985     0.07900
F1457       F  0.43177782  0.65712034  0.30772227    -0.19600
F1458       F  0.49525330  0.68324269  0.31252127    -0.15800
F1459       F  0.45006888  0.62628533  0.32224948    -0.19300
F1460       F  0.49636875  0.58274652  0.25551722    -0.22700
F1461       F  0.43662742  0.53208528  0.26078878    -0.24200
F1462       F  0.49024313  0.53638617  0.26989980    -0.18100
F1463       F  0.47002038  0.68629169  0.22494362    -0.20600
F1464       F  0.46120189  0.62861953  0.21728400    -0.21800
F1465       F  0.50988342  0.66490445  0.23162956    -0.19000
F1466       F  0.32569987  0.53962273  0.26743481    -0.19100
F1467       F  0.36627121  0.58161406  0.28291033    -0.22900
F1468       F  0.37322111  0.53125269  0.27591047    -0.24500
C1469       C  0.61569490  0.72214460  0.35645509    -0.11300
C1470       C  0.61644215  0.75491877  0.35077361     0.11300
C1471       C  0.59592050  0.75079088  0.33870134    -0.03100
C1472       C  0.57495772  0.71347359  0.33275109    -0.05800
C1473       C  0.57285175  0.67980942  0.33854193    -0.16600
C1474       C  0.59364125  0.68432466  0.35081468     0.02300
C1475       C  0.63969383  0.79334430  0.35767174     0.12200
C1476       C  0.59611941  0.78562382  0.33209128     0.62900
H1477       H  0.56041265  0.71076718  0.32329669     0.12300
C1478       C  0.59282254  0.65020079  0.35824844     0.55000
H1479       H  0.63259610  0.72664559  0.36553266     0.08100
C1480       C  0.62675010  0.80226262  0.36976234    -0.05700
C1481       C  0.65138592  0.83848145  0.37610187    -0.06500
C1482       C  0.68757608  0.86596860  0.37051287    -0.16100
C1483       C  0.69977207  0.85774039  0.35817216    -0.01700
C1484       C  0.67597510  0.82089898  0.35212521    -0.09200
C1485       C  0.58715193  0.77375429  0.37590837     0.65100
H1486       H  0.64268134  0.84563458  0.38553445     0.10500
C1487       C  0.73771817  0.88778356  0.35148462     0.63500
H1488       H  0.68547641  0.81323622  0.34297855     0.07900
F1489       F  0.55461537  0.62212381  0.36133195    -0.19600
F1490       F  0.61331992  0.66187670  0.37026932    -0.15800
F1491       F  0.60982556  0.63392569  0.35041110    -0.19300
F1492       F  0.63331309  0.81220402  0.32754762    -0.22700
F1493       F  0.58442986  0.80397185  0.34127160    -0.24200
F1494       F  0.57100594  0.77434142  0.32116549    -0.18100
F1495       F  0.74429752  0.87376591  0.33957462    -0.20600
F1496       F  0.76877421  0.89745560  0.36004763    -0.21800
F1497       F  0.73627926  0.92123373  0.34853633    -0.19000
F1498       F  0.57877147  0.78999787  0.38684723    -0.19100
F1499       F  0.58660600  0.74027612  0.38027220    -0.22900
F1500       F  0.55800370  0.76347555  0.36642874    -0.24500
C1501       C  0.86829425  0.98202732  0.09023476    -0.11300
C1502       C  0.85574464  0.95051167  0.09918009     0.11300
C1503       C  0.86081281  0.91864327  0.09585430    -0.03100
C1504       C  0.88225954  0.92140315  0.08420135    -0.05800
C1505       C  0.89588580  0.95346204  0.07525201    -0.16600
C1506       C  0.88697393  0.98347322  0.07801151     0.02300
C1507       C  0.83452898  0.95042132  0.11146132     0.12200
C1508       C  0.84198528  0.88123771  0.10423678     0.62900
H1509       H  0.88767895  0.89783592  0.08183405     0.12300
C1510       C  0.89447491  0.01550626  0.06789733     0.55000
H1511       H  0.86237342  0.00515353  0.09281153     0.08100
C1512       C  0.85415188  0.96771076  0.12366057    -0.05700
C1513       C  0.83181418  0.96629191  0.13487710    -0.06500
C1514       C  0.79099362  0.94914197  0.13410098    -0.16100
C1515       C  0.77165337  0.93338260  0.12167097    -0.01700
C1516       C  0.79396859  0.93411165  0.11055169    -0.09200
C1517       C  0.89846506  0.98845734  0.12469056     0.65100
H1518       H  0.84615440  0.97885660  0.14437086     0.10500
C1519       C  0.72811174  0.91750561  0.11990523     0.63500
H1520       H  0.77997571  0.92205360  0.10095838     0.07900
F1521       F  0.93413742  0.04195602  0.06684672    -0.19600
F1522       F  0.87643960  0.03622904  0.07169062    -0.15800
F1523       F  0.87968361  0.99895924  0.05542282    -0.19300
F1524       F  0.80178588  0.86464668  0.10407911    -0.22700
F1525       F  0.85488321  0.88937630  0.11741213    -0.24200
F1526       F  0.85052481  0.85372655  0.09925534    -0.18100
F1527       F  0.71683939  0.90928740  0.10654292    -0.20600
F1528       F  0.71887132  0.94502057  0.12432677    -0.21800
F1529       F  0.70689855  0.88312356  0.12716596    -0.19000
F1530       F  0.91148340  0.00280772  0.13754136    -0.19100
F1531       F  0.91512450  0.01977487  0.11581791    -0.22900
F1532       F  0.91137335  0.96287268  0.12153462    -0.24500
C1533       C  0.55712114  0.75038627  0.16888972    -0.11300
C1534       C  0.57463157  0.78211636  0.17778700     0.11300
C1535       C  0.55454906  0.78210723  0.18954096    -0.03100
C1536       C  0.51624205  0.75090119  0.19161868    -0.05800
C1537       C  0.49702212  0.72014750  0.18222408    -0.16600
C1538       C  0.51882174  0.71881652  0.17090404     0.02300
C1539       C  0.61208610  0.81697545  0.17369384     0.12200
C1540       C  0.57314414  0.81550399  0.19967917     0.62900
H1541       H  0.50046462  0.75150878  0.20042291     0.12300
C1542       C  0.50252301  0.68555315  0.16062004     0.55000
H1543       H  0.57332957  0.75156926  0.15993679     0.08100
C1544       C  0.64859301  0.81919674  0.17527745    -0.05700
C1545       C  0.68268152  0.85385979  0.17130216    -0.06500
C1546       C  0.68090867  0.88552551  0.16574288    -0.16100
C1547       C  0.64431127  0.88273456  0.16371723    -0.01700
C1548       C  0.61030370  0.84814087  0.16767687    -0.09200
C1549       C  0.65142740  0.78495828  0.18086029     0.65100
H1550       H  0.71107279  0.85648352  0.17240768     0.10500
C1551       C  0.64123175  0.91584143  0.15721538     0.63500
H1552       H  0.58185125  0.84515039  0.16622737     0.07900
F1553       F  0.48748558  0.64975878  0.16710720    -0.19600
F1554       F  0.53107317  0.68869581  0.15180345    -0.15800
F1555       F  0.47371452  0.68624111  0.15299520    -0.19300
F1556       F  0.58036239  0.85018824  0.19373801    -0.22700
F1557       F  0.60801223  0.81983017  0.20423821    -0.24200
F1558       F  0.54923439  0.80871012  0.21074575    -0.18100
F1559       F  0.65908988  0.92447854  0.14470556    -0.20600
F1560       F  0.60268699  0.90601517  0.15544562    -0.21800
F1561       F  0.65938913  0.94892419  0.16526196    -0.19000
F1562       F  0.68992801  0.79449811  0.18247328    -0.19100
F1563       F  0.63352338  0.75347343  0.17211017    -0.22900
F1564       F  0.63320700  0.77380075  0.19327779    -0.24500
C1565       C  0.79720056  0.30363164  0.25595796    -0.11300
C1566       C  0.79304332  0.27789036  0.26639467     0.11300
C1567       C  0.80772714  0.25213370  0.26477603    -0.03100
C1568       C  0.82746662  0.25409233  0.25277659    -0.05800
C1569       C  0.83313026  0.28103783  0.24255682    -0.16600
C1570       C  0.81761330  0.30613580  0.24406582     0.02300
C1571       C  0.77240571  0.27811128  0.27880911     0.12200
C1572       C  0.80263619  0.22283215  0.27565742     0.62900
H1573       H  0.83897479  0.23468986  0.25129098     0.12300
C1574       C  0.82225082  0.33516581  0.23319421     0.55000
H1575       H  0.78474087  0.32224536  0.25732935     0.08100
C1576       C  0.79103642  0.30720362  0.28884225    -0.05700
C1577       C  0.76998974  0.30465124  0.30055760    -0.06500
C1578       C  0.73054798  0.27526686  0.30222210    -0.16100
C1579       C  0.71128936  0.24745148  0.29174403    -0.01700
C1580       C  0.73290406  0.24929253  0.28023990    -0.09200
C1581       C  0.83259690  0.34126034  0.28706130     0.65100
H1582       H  0.78417711  0.32611597  0.30849919     0.10500
C1583       C  0.66795188  0.21692479  0.29232936     0.63500
H1584       H  0.71908910  0.22823841  0.27215880     0.07900
F1585       F  0.80009748  0.35242547  0.23588662    -0.19600
F1586       F  0.81037027  0.31631357  0.22088257    -0.15800
F1587       F  0.86103874  0.36460664  0.23243375    -0.19300
F1588       F  0.76330760  0.19678665  0.27785403    -0.22700
F1589       F  0.81961378  0.24245366  0.28751888    -0.24200
F1590       F  0.81988551  0.20120801  0.27208803    -0.18100
F1591       F  0.64671351  0.23490047  0.29533077    -0.20600
F1592       F  0.66123640  0.18912757  0.30205896    -0.21800
F1593       F  0.65433461  0.19757810  0.28015581    -0.19000
F1594       F  0.84500303  0.36584395  0.29815014    -0.19100
F1595       F  0.83459395  0.36351749  0.27601949    -0.22900
F1596       F  0.85788536  0.32727129  0.28516882    -0.24500
C1597       C  0.98193277  0.40394237  0.19777072    -0.11300
C1598       C  0.01639693  0.40641360  0.20251306     0.11300
C1599       C  0.01429803  0.37764694  0.21157299    -0.03100
C1600       C  0.97724662  0.34659875  0.21536987    -0.05800
C1601       C  0.94287644  0.34401883  0.21052517    -0.16600
C1602       C  0.94492076  0.37271623  0.20153118     0.02300
C1603       C  0.05441696  0.44079662  0.19852426     0.12200
C1604       C  0.05097999  0.37986513  0.21723866     0.62900
H1605       H  0.97472708  0.32406020  0.22221551     0.12300
C1606       C  0.90811736  0.36994408  0.19588699     0.55000
H1607       H  0.98434287  0.42676077  0.19109538     0.08100
C1608       C  0.07300624  0.44253204  0.18620169    -0.05700
C1609       C  0.11094624  0.47438397  0.18389734    -0.06500
C1610       C  0.13092607  0.50447037  0.19349903    -0.16100
C1611       C  0.11048901  0.50369722  0.20554403    -0.01700
C1612       C  0.07237631  0.47191006  0.20762085    -0.09200
C1613       C  0.05304332  0.41056631  0.17563884     0.65100
H1614       H  0.12562483  0.47525571  0.17459917     0.10500
C1615       C  0.12815394  0.53472606  0.21657490     0.63500
H1616       H  0.05649520  0.46999751  0.21674792     0.07900
F1617       F  0.91648294  0.40056734  0.18715913    -0.19600
F1618       F  0.88550933  0.37096094  0.20628722    -0.15800
F1619       F  0.88684911  0.33511565  0.18890614    -0.19300
F1620       F  0.07159744  0.41344520  0.22492341    -0.22700
F1621       F  0.07454757  0.38063924  0.20683087    -0.24200
F1622       F  0.04220613  0.34794003  0.22537178    -0.18100
F1623       F  0.13931463  0.57137390  0.21132214    -0.20600
F1624       F  0.15994797  0.53470036  0.22220036    -0.21800
F1625       F  0.10195385  0.52775484  0.22693063    -0.19000
F1626       F  0.07614895  0.41808169  0.16429335    -0.19100
F1627       F  0.01847948  0.40803242  0.17164063    -0.22900
F1628       F  0.04493766  0.37482028  0.18091090    -0.24500
C1629       C  0.81432390  0.16014599  0.18726437    -0.11300
C1630       C  0.81890358  0.13156628  0.19397694     0.11300
C1631       C  0.83698407  0.13966255  0.20679346    -0.03100
C1632       C  0.84894117  0.17635161  0.21271165    -0.05800
C1633       C  0.84461803  0.20502923  0.20593029    -0.16600
C1634       C  0.82707674  0.19708456  0.19304544     0.02300
C1635       C  0.80542854  0.09382163  0.18702366     0.12200
C1636       C  0.84441172  0.11011023  0.21397664     0.62900
H1637       H  0.86266514  0.18337470  0.22254926     0.12300
C1638       C  0.82195872  0.22750113  0.18547517     0.55000
H1639       H  0.80100891  0.15330837  0.17736041     0.08100
C1640       C  0.76597808  0.06333142  0.18741168    -0.05700
C1641       C  0.75512290  0.02875828  0.18018903    -0.06500
C1642       C  0.78211414  0.02419575  0.17228209    -0.16100
C1643       C  0.82193906  0.05545888  0.17186304    -0.01700
C1644       C  0.83262652  0.08971676  0.17931715    -0.09200
C1645       C  0.73523654  0.06799774  0.19497775     0.65100
H1646       H  0.72481173  0.00543731  0.18034504     0.10500
C1647       C  0.85357213  0.05340541  0.16384286     0.63500
H1648       H  0.86245459  0.11417043  0.17907396     0.07900
F1649       F  0.80238185  0.24067245  0.19347651    -0.19600
F1650       F  0.80071729  0.21240481  0.17372369    -0.15800
F1651       F  0.85826405  0.25877884  0.18207235    -0.19300
F1652       F  0.86993258  0.10363330  0.20644827    -0.22700
F1653       F  0.80975163  0.07491269  0.21563729    -0.24200
F1654       F  0.86077707  0.12330035  0.22658884    -0.18100
F1655       F  0.89042323  0.08538083  0.16630348    -0.20600
F1656       F  0.84651929  0.05316762  0.15018425    -0.21800
F1657       F  0.85440573  0.01996904  0.16735529    -0.19000
F1658       F  0.69933376  0.03348291  0.19513512    -0.19100
F1659       F  0.73047753  0.09666892  0.18881283    -0.22900
F1660       F  0.74661410  0.07883157  0.20818920    -0.24500
C1661       C  0.89170276  0.39134581  0.34050553    -0.11300
C1662       C  0.90151384  0.36270118  0.34334418     0.11300
C1663       C  0.87473231  0.32808477  0.35028891    -0.03100
C1664       C  0.83738395  0.32182473  0.35320992    -0.05800
C1665       C  0.82635415  0.34928404  0.34962760    -0.16600
C1666       C  0.85449214  0.38549617  0.34359046     0.02300
C1667       C  0.93974083  0.36923368  0.33857750     0.12200
C1668       C  0.88561295  0.29795610  0.35459600     0.62900
H1669       H  0.81605868  0.29468324  0.35802739     0.12300
C1670       C  0.84610175  0.41830191  0.34062984     0.55000
H1671       H  0.91329014  0.41802846  0.33550255     0.08100
C1672       C  0.94478846  0.35945489  0.32529834    -0.05700
C1673       C  0.98111436  0.36420327  0.32164507    -0.06500
C1674       C  0.01224127  0.37857749  0.33079860    -0.16100
C1675       C  0.00770870  0.39000055  0.34392174    -0.01700
C1676       C  0.97124075  0.38511424  0.34757830    -0.09200
C1677       C  0.91215743  0.34479767  0.31498977     0.65100
H1678       H  0.98534737  0.35610138  0.31162650     0.10500
C1679       C  0.04115970  0.40774612  0.35396294     0.63500
H1680       H  0.96671936  0.39297006  0.35759985     0.07900
F1681       F  0.82054022  0.40815048  0.32990221    -0.19600
F1682       F  0.87983747  0.45300998  0.33727873    -0.15800
F1683       F  0.83008922  0.42543844  0.35190388    -0.19300
F1684       F  0.91582173  0.31475755  0.36383017    -0.22700
F1685       F  0.89745314  0.28522812  0.34356525    -0.24200
F1686       F  0.85447957  0.26539629  0.36057992    -0.18100
F1687       F  0.03239666  0.42313108  0.36506680    -0.20600
F1688       F  0.07434438  0.43786320  0.34794098    -0.21800
F1689       F  0.04883461  0.37923400  0.35845849    -0.19000
F1690       F  0.92274802  0.33567983  0.30281879    -0.19100
F1691       F  0.90328702  0.37382977  0.31267314    -0.22900
F1692       F  0.87919649  0.31145468  0.31968423    -0.24500
C1693       C  0.19836989  0.51949601  0.26138245    -0.11300
C1694       C  0.18039419  0.47846194  0.26121165     0.11300
C1695       C  0.18460137  0.45936778  0.24980581    -0.03100
C1696       C  0.20658182  0.48237167  0.23880435    -0.05800
C1697       C  0.22507165  0.52344853  0.23904136    -0.16600
C1698       C  0.22184623  0.54264607  0.25064473     0.02300
C1699       C  0.15914718  0.45671915  0.27349568     0.12200
C1700       C  0.16692661  0.41511643  0.24936750     0.62900
H1701       H  0.20943886  0.46840038  0.22984675     0.12300
C1702       C  0.24454451  0.58715428  0.25207202     0.55000
H1703       H  0.19449256  0.53332267  0.27020376     0.08100
C1704       C  0.17943474  0.45733879  0.28528641    -0.05700
C1705       C  0.15770295  0.43769511  0.29678644    -0.06500
C1706       C  0.11661775  0.41702547  0.29684570    -0.16100
C1707       C  0.09624118  0.41530955  0.28485268    -0.01700
C1708       C  0.11811577  0.43612132  0.27343418    -0.09200
C1709       C  0.22389289  0.47907961  0.28582442     0.65100
H1710       H  0.17289611  0.43910475  0.30599451     0.10500
C1711       C  0.05195778  0.39055634  0.28383094     0.63500
H1712       H  0.10335459  0.43649092  0.26430625     0.07900
F1713       F  0.24293740  0.59876377  0.26511467    -0.19600
F1714       F  0.22920379  0.60371771  0.24361168    -0.15800
F1715       F  0.28349995  0.60168967  0.24889918    -0.19300
F1716       F  0.12665154  0.39651164  0.25023112    -0.22700
F1717       F  0.18098735  0.40330373  0.26001485    -0.24200
F1718       F  0.17621473  0.40307747  0.23753325    -0.18100
F1719       F  0.03485362  0.40671263  0.29164794    -0.20600
F1720       F  0.03940024  0.35267231  0.28815054    -0.21800
F1721       F  0.03915553  0.38839564  0.27070523    -0.19000
F1722       F  0.23725435  0.47036734  0.29744992    -0.19100
F1723       F  0.23854730  0.51913527  0.28555304    -0.22900
F1724       F  0.23857441  0.46872818  0.27494755    -0.24500
C1725       C  0.11281493  0.08383223  0.41893764    -0.11300
C1726       C  0.13109976  0.10146069  0.43117254     0.11300
C1727       C  0.16928396  0.13515259  0.43098355    -0.03100
C1728       C  0.18649761  0.15169197  0.41846847    -0.05800
C1729       C  0.16730437  0.13512955  0.40631341    -0.16600
C1730       C  0.13038634  0.10021003  0.40643334     0.02300
C1731       C  0.11027719  0.08283693  0.44400084     0.12200
C1732       C  0.19204710  0.15351060  0.44385967     0.62900
H1733       H  0.21511939  0.17801992  0.41804742     0.12300
C1734       C  0.11035498  0.08004273  0.39338658     0.55000
H1735       H  0.08454938  0.05706376  0.41928249     0.08100
C1736       C  0.07787925  0.08528623  0.44874198    -0.05700
C1737       C  0.05935666  0.06583378  0.46081967    -0.06500
C1738       C  0.07280314  0.04509102  0.46853976    -0.16100
C1739       C  0.10734252  0.04540897  0.46411975    -0.01700
C1740       C  0.12381368  0.06241647  0.45159112    -0.09200
C1741       C  0.06318572  0.10870511  0.44118138     0.65100
H1742       H  0.03395359  0.06671671  0.46427437     0.10500
C1743       C  0.12856503  0.02986268  0.47258207     0.63500
H1744       H  0.14803082  0.06021058  0.44760161     0.07900
F1745       F  0.10201613  0.10435071  0.38587294    -0.19600
F1746       F  0.07566431  0.04521129  0.39570254    -0.15800
F1747       F  0.13478848  0.07157362  0.38602126    -0.19300
F1748       F  0.20262356  0.12859308  0.44976889    -0.22700
F1749       F  0.16948163  0.16044488  0.45279629    -0.24200
F1750       F  0.22600755  0.18891312  0.44138916    -0.18100
F1751       F  0.16515894  0.04088911  0.46738889    -0.20600
F1752       F  0.10725989  0.98926393  0.47299548    -0.21800
F1753       F  0.13422721  0.04508134  0.48548209    -0.19000
F1754       F  0.03322060  0.10958680  0.44803645    -0.19100
F1755       F  0.04910987  0.09217634  0.42867800    -0.22900
F1756       F  0.09342464  0.14700582  0.43952658    -0.24500
C1757       C  0.32802480  0.20324122  0.35680161    -0.11300
C1758       C  0.34538808  0.18799030  0.36516529     0.11300
C1759       C  0.32615697  0.16790380  0.37709055    -0.03100
C1760       C  0.29067961  0.16556983  0.38059614    -0.05800
C1761       C  0.27342308  0.18208945  0.37250310    -0.16600
C1762       C  0.29179790  0.19973935  0.35995595     0.02300
C1763       C  0.38623600  0.19868009  0.36220464     0.12200
C1764       C  0.34329672  0.14931185  0.38612987     0.62900
H1765       H  0.27671641  0.15142486  0.38997462     0.12300
C1766       C  0.27402691  0.21468804  0.34967854     0.55000
H1767       H  0.34392524  0.21912663  0.34787356     0.08100
C1768       C  0.39640815  0.17975903  0.35222619    -0.05700
C1769       C  0.43626105  0.19191532  0.35043569    -0.06500
C1770       C  0.46540565  0.22204957  0.35831331    -0.16100
C1771       C  0.45512196  0.24211077  0.36775643    -0.01700
C1772       C  0.41561512  0.23024106  0.36944448    -0.09200
C1773       C  0.36544601  0.14728860  0.34351545     0.65100
H1774       H  0.44492606  0.17802230  0.34289960     0.10500
C1775       C  0.48582398  0.27594272  0.37604005     0.63500
H1776       H  0.40708887  0.24507804  0.37667682     0.07900
F1777       F  0.29420928  0.22452679  0.33756192    -0.19600
F1778       F  0.27503343  0.24801641  0.35450329    -0.15800
F1779       F  0.23593717  0.18566975  0.34696388    -0.19300
F1780       F  0.37856896  0.17788091  0.39145515    -0.22700
F1781       F  0.34933527  0.12319365  0.37874569    -0.24200
F1782       F  0.31864879  0.12890516  0.39676247    -0.18100
F1783       F  0.46995253  0.29376474  0.38368025    -0.20600
F1784       F  0.51371558  0.30407495  0.36760475    -0.21800
F1785       F  0.50335777  0.26214226  0.38469548    -0.19000
F1786       F  0.38151873  0.13192974  0.33478913    -0.19100
F1787       F  0.34651504  0.16185587  0.33587953    -0.22900
F1788       F  0.33834272  0.11709296  0.35154429    -0.24500
C1789       C  0.14287285  0.26314863  0.37048175    -0.11300
C1790       C  0.14783995  0.26819877  0.35652367     0.11300
C1791       C  0.16831785  0.25312823  0.34946389    -0.03100
C1792       C  0.18158016  0.23153465  0.35666129    -0.05800
C1793       C  0.17590544  0.22537361  0.37065187    -0.16600
C1794       C  0.15681295  0.24224100  0.37779043     0.02300
C1795       C  0.13337121  0.29167801  0.34972466     0.12200
C1796       C  0.17603260  0.25974731  0.33439851     0.62900
H1797       H  0.19619734  0.21884836  0.35129624     0.12300
C1798       C  0.15209992  0.23974496  0.39303384     0.55000
H1799       H  0.12797357  0.27603165  0.37561655     0.08100
C1800       C  0.09392513  0.27518181  0.34566731    -0.05700
C1801       C  0.08286193  0.29932371  0.33895748    -0.06500
C1802       C  0.10988349  0.33898089  0.33630834    -0.16100
C1803       C  0.14896521  0.35582906  0.34086609    -0.01700
C1804       C  0.15995893  0.33170340  0.34762514    -0.09200
C1805       C  0.06365199  0.23254348  0.34854955     0.65100
H1806       H  0.05295301  0.28731924  0.33559595     0.10500
C1807       C  0.17871533  0.39905031  0.33884728     0.63500
H1808       H  0.18969850  0.34370694  0.35117154     0.07900
F1809       F  0.12514383  0.20171333  0.39683154    -0.19600
F1810       F  0.13889430  0.26390170  0.39781489    -0.15800
F1811       F  0.18773607  0.25138966  0.39909826    -0.19300
F1812       F  0.19777068  0.29951735  0.33165961    -0.22700
F1813       F  0.14099834  0.24369372  0.32750235    -0.24200
F1814       F  0.19666392  0.24266452  0.32955770    -0.18100
F1815       F  0.21333895  0.41014415  0.34559251    -0.20600
F1816       F  0.16387124  0.42173877  0.34365013    -0.21800
F1817       F  0.18730752  0.40662582  0.32530823    -0.19000
F1818       F  0.02754233  0.22211964  0.34308926    -0.19100
F1819       F  0.05904441  0.22657820  0.36231564    -0.22900
F1820       F  0.07552144  0.20805914  0.34313340    -0.24500
C1821       C  0.74019763  0.85699507  0.04264239    -0.11300
C1822       C  0.71757397  0.85428699  0.03149448     0.11300
C1823       C  0.73333852  0.85906442  0.01837278    -0.03100
C1824       C  0.77220956  0.86749111  0.01693469    -0.05800
C1825       C  0.79578523  0.87192026  0.02816936    -0.16600
C1826       C  0.77895978  0.86559316  0.04133605     0.02300
C1827       C  0.67952163  0.85144258  0.03435239     0.12200
C1828       C  0.70997503  0.85720449  0.00601275     0.62900
H1829       H  0.78497568  0.87219149  0.00697576     0.12300
C1830       C  0.80193684  0.87061749  0.05415325     0.55000
H1831       H  0.72736123  0.85380252  0.05254166     0.08100
C1832       C  0.64572946  0.81563642  0.03806947    -0.05700
C1833       C  0.61203542  0.81634847  0.04209575    -0.06500
C1834       C  0.61205209  0.85177002  0.04318395    -0.16100
C1835       C  0.64688542  0.88782430  0.04048545    -0.01700
C1836       C  0.67973107  0.88685293  0.03570557    -0.09200
C1837       C  0.64564908  0.77714550  0.03814346     0.65100
H1838       H  0.58544833  0.78923647  0.04458564     0.10500
C1839       C  0.65044688  0.92716360  0.04365498     0.63500
H1840       H  0.70662993  0.91401446  0.03352008     0.07900
F1841       F  0.78031808  0.86611706  0.06568560    -0.19600
F1842       F  0.83416198  0.90798903  0.05438565    -0.15800
F1843       F  0.81338461  0.84292041  0.05469223    -0.19300
F1844       F  0.70490265  0.88931210  0.00586678    -0.22700
F1845       F  0.67372128  0.82326769  0.00619526    -0.24200
F1846       F  0.72871275  0.85735428  0.99420744    -0.18100
F1847       F  0.68876673  0.95783160  0.04269768    -0.20600
F1848       F  0.63777202  0.92673294  0.05669003    -0.21800
F1849       F  0.62820727  0.93460994  0.03477559    -0.19000
F1850       F  0.60954077  0.74580509  0.04182499    -0.19100
F1851       F  0.67298800  0.77924123  0.04724770    -0.22900
F1852       F  0.65473120  0.76960106  0.02547215    -0.24500
C1853       C  0.40137240  0.71360130  0.10951222    -0.11300
C1854       C  0.44035142  0.74442116  0.11059579     0.11300
C1855       C  0.45805168  0.75599692  0.12347213    -0.03100
C1856       C  0.43623704  0.73547014  0.13488686    -0.05800
C1857       C  0.39736725  0.70490105  0.13380230    -0.16600
C1858       C  0.37940541  0.69351560  0.12100258     0.02300
C1859       C  0.46138699  0.76544076  0.09814299     0.12200
C1860       C  0.49959178  0.79017218  0.12517754     0.62900
H1861       H  0.44922179  0.74336928  0.14483161     0.12300
C1862       C  0.33748588  0.66002172  0.11960629     0.55000
H1863       H  0.38825225  0.70564802  0.09959281     0.08100
C1864       C  0.48097539  0.75190232  0.08977943    -0.05700
C1865       C  0.50077502  0.77399732  0.07826341    -0.06500
C1866       C  0.50127041  0.80880807  0.07483132    -0.16100
C1867       C  0.48221425  0.82267464  0.08349111    -0.01700
C1868       C  0.46199530  0.80016863  0.09485497    -0.09200
C1869       C  0.48009100  0.71378567  0.09282012     0.65100
H1870       H  0.51532796  0.76363571  0.07163948     0.10500
C1871       C  0.48348787  0.86127430  0.08111375     0.63500
H1872       H  0.44649297  0.80965468  0.10139962     0.07900
F1873       F  0.33363015  0.62654381  0.12551642    -0.19600
F1874       F  0.32625327  0.65162656  0.10624675    -0.15800
F1875       F  0.31257067  0.66984429  0.12594494    -0.19300
F1876       F  0.50191319  0.82446129  0.12076539    -0.22700
F1877       F  0.52530621  0.78368723  0.11778983    -0.24200
F1878       F  0.51141067  0.79537003  0.13851915    -0.18100
F1879       F  0.47160367  0.87313225  0.09239646    -0.20600
F1880       F  0.45864679  0.85687404  0.07064613    -0.21800
F1881       F  0.52122729  0.89070683  0.07809122    -0.19000
F1882       F  0.50424510  0.70805160  0.08422128    -0.19100
F1883       F  0.44235402  0.68255321  0.09134940    -0.22900
F1884       F  0.49239706  0.71398950  0.10586087    -0.24500
C1885       C  0.44879417  0.08563565  0.93693440    -0.11300
C1886       C  0.48943454  0.10936865  0.93832153     0.11300
C1887       C  0.50735057  0.11165406  0.95086808    -0.03100
C1888       C  0.48354220  0.09003600  0.96177567    -0.05800
C1889       C  0.44269006  0.06689984  0.96054040    -0.16600
C1890       C  0.42488527  0.06390035  0.94784937     0.02300
C1891       C  0.51231780  0.13378190  0.92671770     0.12200
C1892       C  0.55135090  0.13725150  0.95274757     0.62900
H1893       H  0.49665797  0.09172559  0.97150811     0.12300
C1894       C  0.38119875  0.03721832  0.94567476     0.55000
H1895       H  0.43591357  0.08478688  0.92722759     0.08100
C1896       C  0.52526449  0.11907491  0.91619355    -0.05700
C1897       C  0.54840931  0.14494223  0.90589322    -0.06500
C1898       C  0.55697877  0.18409073  0.90541795    -0.16100
C1899       C  0.54334948  0.19848850  0.91598328    -0.01700
C1900       C  0.52123342  0.17284545  0.92645499    -0.09200
C1901       C  0.51340114  0.07601793  0.91559075     0.65100
H1902       H  0.55893759  0.13434951  0.89785404     0.10500
C1903       C  0.55192693  0.24055070  0.91641807     0.63500
H1904       H  0.51029435  0.18297527  0.93457683     0.07900
F1905       F  0.37128130  0.03448452  0.93217531    -0.19600
F1906       F  0.36092121  0.05174913  0.95254330    -0.15800
F1907       F  0.36952436  0.99976699  0.95025370    -0.19300
F1908       F  0.56270374  0.17631672  0.95098355    -0.22700
F1909       F  0.57068776  0.12710153  0.94345543    -0.24200
F1910       F  0.56294285  0.13308042  0.96549546    -0.18100
F1911       F  0.53045292  0.24580524  0.90655345    -0.20600
F1912       F  0.59139060  0.26641071  0.91439082    -0.21800
F1913       F  0.54191432  0.24963629  0.92870944    -0.19000
F1914       F  0.53194610  0.06858657  0.90517516    -0.19100
F1915       F  0.47348464  0.05338797  0.91355134    -0.22900
F1916       F  0.52283986  0.06462098  0.92749308    -0.24500
C1917       C  0.26428994  0.99547798  0.99762524    -0.11300
C1918       C  0.26918388  0.03038637  0.00308176     0.11300
C1919       C  0.30697606  0.06413154  0.00378099    -0.03100
C1920       C  0.33865866  0.06216399  0.99827466    -0.05800
C1921       C  0.33341351  0.02757689  0.99233672    -0.16600
C1922       C  0.29556590  0.99371204  0.99182032     0.02300
C1923       C  0.23342315  0.03063308  0.00720022     0.12200
C1924       C  0.31378356  0.10157414  0.01052699     0.62900
H1925       H  0.36799066  0.08742161  0.99879146     0.12300
C1926       C  0.28620034  0.95542871  0.98506203     0.55000
H1927       H  0.23517990  0.96970125  0.99735695     0.08100
C1928       C  0.20839068  0.03247938  0.99748495    -0.05700
C1929       C  0.17181598  0.02600195  0.00166381    -0.06500
C1930       C  0.15985375  0.01871516  0.01524339    -0.16100
C1931       C  0.18693835  0.02127547  0.02515249    -0.01700
C1932       C  0.22284957  0.02579534  0.02084945    -0.09200
C1933       C  0.21981075  0.04020979  0.98268465     0.65100
H1934       H  0.15151845  0.02477450  0.99412694     0.10500
C1935       C  0.17926398  0.02129399  0.04015009     0.63500
H1936       H  0.24269561  0.02482556  0.02811442     0.07900
F1937       F  0.25406226  0.94296478  0.97673070    -0.19600
F1938       F  0.27726573  0.92713329  0.99482949    -0.15800
F1939       F  0.31653615  0.95881175  0.97721363    -0.19300
F1940       F  0.30308734  0.09422465  0.02394493    -0.22700
F1941       F  0.29176341  0.11511941  0.00428208    -0.24200
F1942       F  0.35270171  0.13101553  0.00994839    -0.18100
F1943       F  0.21291741  0.03328272  0.04762959    -0.20600
F1944       F  0.15166067  0.98411893  0.04445438    -0.21800
F1945       F  0.16617001  0.04708436  0.04275829    -0.19000
F1946       F  0.19276963  0.04450585  0.97521720    -0.19100
F1947       F  0.22231367  0.00932342  0.97731491    -0.22900
F1948       F  0.25562593  0.07436765  0.98134145    -0.24500
C1949       C  0.42414407  0.93011840  0.01178289    -0.11300
C1950       C  0.46463528  0.94985238  0.01387451     0.11300
C1951       C  0.48850885  0.98853374  0.00896433    -0.03100
C1952       C  0.47068107  0.00626957  0.00199593    -0.05800
C1953       C  0.43000901  0.98677060  0.99999508    -0.16600
C1954       C  0.40609963  0.94815416  0.00512872     0.02300
C1955       C  0.48105963  0.92913842  0.02138139     0.12200
C1956       C  0.53256047  0.01081390  0.01102394     0.62900
H1957       H  0.48848876  0.03572397  0.99802280     0.12300
C1958       C  0.36197626  0.92561621  0.00341166     0.55000
H1959       H  0.40672099  0.90043312  0.01560271     0.08100
C1960       C  0.47976105  0.92702046  0.03559550    -0.05700
C1961       C  0.49603379  0.90710992  0.04207631    -0.06500
C1962       C  0.51256420  0.88848043  0.03486578    -0.16100
C1963       C  0.51379149  0.89061107  0.02053240    -0.01700
C1964       C  0.49755474  0.91077864  0.01405749    -0.09200
C1965       C  0.46091043  0.94537108  0.04388551     0.65100
H1966       H  0.49622143  0.90624670  0.05295284     0.10500
C1967       C  0.53151696  0.87157588  0.01200448     0.63500
H1968       H  0.49776518  0.91267830  0.00316356     0.07900
F1969       F  0.34579191  0.94360344  0.01076049    -0.19600
F1970       F  0.34521894  0.88724044  0.00791278    -0.15800
F1971       F  0.35266053  0.92452581  0.98993973    -0.19300
F1972       F  0.54882966  0.99164081  0.00447328    -0.22700
F1973       F  0.54117590  0.01313938  0.02460664    -0.24200
F1974       F  0.54995207  0.04871970  0.00600624    -0.18100
F1975       F  0.52497114  0.87327465  0.99837718    -0.20600
F1976       F  0.51522290  0.83244661  0.01549780    -0.21800
F1977       F  0.57153756  0.89087906  0.01393562    -0.19000
F1978       F  0.46474980  0.94165953  0.05759020    -0.19100
F1979       F  0.42143831  0.92706499  0.04098025    -0.22900
F1980       F  0.47816005  0.98492849  0.04095199    -0.24500
C1981       C  0.43523655  0.63395924  0.61326343    -0.11300
C1982       C  0.44245568  0.60284021  0.61281579     0.11300
C1983       C  0.43025536  0.57546972  0.62349241    -0.03100
C1984       C  0.40996702  0.57976860  0.63430690    -0.05800
C1985       C  0.40291055  0.61118513  0.63491066    -0.16600
C1986       C  0.41570636  0.63893820  0.62418562     0.02300
C1987       C  0.46486093  0.60114667  0.60126707     0.12200
C1988       C  0.43976304  0.54274465  0.62364601     0.62900
H1989       H  0.40048584  0.55918025  0.64262639     0.12300
C1990       C  0.40885447  0.67351466  0.62403902     0.55000
H1991       H  0.44575952  0.65478257  0.60500016     0.08100
C1992       C  0.44668601  0.58359125  0.58892716    -0.05700
C1993       C  0.47024625  0.58389325  0.57832585    -0.06500
C1994       C  0.51111034  0.60233186  0.57960885    -0.16100
C1995       C  0.52924392  0.62037887  0.59197858    -0.01700
C1996       C  0.50549550  0.61934171  0.60265095    -0.09200
C1997       C  0.40291133  0.56579767  0.58685870     0.65100
H1998       H  0.45696738  0.57053060  0.56877155     0.10500
C1999       C  0.57315516  0.64024638  0.59406703     0.63500
H2000       H  0.51846637  0.63321813  0.61218318     0.07900
F2001       F  0.41862319  0.69276784  0.61174052    -0.19600
F2002       F  0.43164746  0.70049005  0.63378702    -0.15800
F2003       F  0.36985101  0.66064254  0.62643478    -0.19300
F2004       F  0.47981944  0.55880325  0.62440687    -0.22700
F2005       F  0.42615227  0.52045866  0.61204905    -0.24200
F2006       F  0.42289310  0.51786757  0.63456092    -0.18100
F2007       F  0.59177016  0.67463316  0.58666463    -0.20600
F2008       F  0.58646894  0.61556223  0.59003855    -0.21800
F2009       F  0.58329762  0.64969794  0.60747185    -0.19000
F2010       F  0.39092703  0.54767327  0.57442144    -0.19100
F2011       F  0.39356372  0.59501384  0.58758463    -0.22900
F2012       F  0.38221331  0.53799963  0.59666564    -0.24500
C2013       C  0.66231819  0.71057569  0.52998588    -0.11300
C2014       C  0.69213342  0.73159865  0.53934232     0.11300
C2015       C  0.68579554  0.72150848  0.55316656    -0.03100
C2016       C  0.65040361  0.68805711  0.55702043    -0.05800
C2017       C  0.62104218  0.66588254  0.54755205    -0.16600
C2018       C  0.62632128  0.67819322  0.53389368     0.02300
C2019       C  0.72944829  0.76465700  0.53430960     0.12200
C2020       C  0.71571351  0.74667046  0.56377533     0.62900
H2021       H  0.64533217  0.67896506  0.56748122     0.12300
C2022       C  0.59379328  0.65843738  0.52355789     0.55000
H2023       H  0.66760581  0.71979148  0.51953281     0.08100
C2024       C  0.75945976  0.75885229  0.52923699    -0.05700
C2025       C  0.79442472  0.79174810  0.52491253    -0.06500
C2026       C  0.80029853  0.82988675  0.52567468    -0.16100
C2027       C  0.76961682  0.83542852  0.53030390    -0.01700
C2028       C  0.73435433  0.80235765  0.53444102    -0.09200
C2029       C  0.75478030  0.71823266  0.52854546     0.65100
H2030       H  0.81820444  0.78804120  0.52138716     0.10500
C2031       C  0.77398599  0.87582315  0.53111119     0.63500
H2032       H  0.71060059  0.80576097  0.53820132     0.07900
F2033       F  0.58870300  0.62227815  0.52006757    -0.19600
F2034       F  0.60220716  0.68074558  0.51193749    -0.15800
F2035       F  0.55923646  0.65350107  0.52879556    -0.19300
F2036       F  0.71952194  0.78343711  0.56403082    -0.22700
F2037       F  0.75170228  0.75079214  0.56090765    -0.24200
F2038       F  0.70458942  0.73041549  0.57650020    -0.18100
F2039       F  0.73815423  0.87338947  0.53272392    -0.20600
F2040       F  0.79086920  0.89676616  0.51941567    -0.21800
F2041       F  0.79716499  0.89594190  0.54202628    -0.19000
F2042       F  0.78826385  0.71959445  0.52376358    -0.19100
F2043       F  0.72428778  0.69457784  0.52000258    -0.22900
F2044       F  0.74691013  0.70135929  0.54121601    -0.24500
C2045       C  0.22644900  0.07887960  0.51198437    -0.11300
C2046       C  0.24038631  0.11796381  0.51565789     0.11300
C2047       C  0.21579331  0.12794869  0.52282163    -0.03100
C2048       C  0.17642829  0.09874445  0.52483711    -0.05800
C2049       C  0.16151234  0.05993725  0.52026248    -0.16600
C2050       C  0.18777607  0.04923197  0.51467707     0.02300
C2051       C  0.27840798  0.14847984  0.51003511     0.12200
C2052       C  0.23098211  0.16938481  0.52809582     0.62900
H2053       H  0.15665608  0.10659847  0.52949724     0.12300
C2054       C  0.17574106  0.00689961  0.51169483     0.55000
H2055       H  0.24572324  0.07189132  0.50647726     0.08100
C2056       C  0.31494678  0.15657485  0.51526082    -0.05700
C2057       C  0.34927964  0.18713796  0.50937317    -0.06500
C2058       C  0.34780635  0.20862537  0.49835784    -0.16100
C2059       C  0.31125017  0.19934006  0.49283016    -0.01700
C2060       C  0.27708517  0.16898698  0.49872326    -0.09200
C2061       C  0.31765469  0.13344953  0.52701194     0.65100
H2062       H  0.37764541  0.19512153  0.51349290     0.10500
C2063       C  0.30818249  0.22116338  0.48076660     0.63500
H2064       H  0.24871492  0.16117045  0.49464269     0.07900
F2065       F  0.20803683  0.00254860  0.51020767    -0.19600
F2066       F  0.15438393  0.99473388  0.49989380    -0.15800
F2067       F  0.15359732  0.98296083  0.52223708    -0.19300
F2068       F  0.24096185  0.19550368  0.51750948    -0.22700
F2069       F  0.26366594  0.18071151  0.53601009    -0.24200
F2070       F  0.20332813  0.17181266  0.53589201    -0.18100
F2071       F  0.32374150  0.21308376  0.46964340    -0.20600
F2072       F  0.32835519  0.26118781  0.48314611    -0.21800
F2073       F  0.26972918  0.20984369  0.47786631    -0.19000
F2074       F  0.35606083  0.14733549  0.53080938    -0.19100
F2075       F  0.30146685  0.09443735  0.52344972    -0.22900
F2076       F  0.29774520  0.13607590  0.53801864    -0.24500
C2077       C  0.47293561  0.26507660  0.44538480    -0.11300
C2078       C  0.51350180  0.28922673  0.44648149     0.11300
C2079       C  0.53003429  0.30984826  0.45859399    -0.03100
C2080       C  0.50493153  0.30383554  0.46954103    -0.05800
C2081       C  0.46396504  0.27940172  0.46852900    -0.16600
C2082       C  0.44764757  0.26013713  0.45608712     0.02300
C2083       C  0.53691553  0.29348768  0.43427490     0.12200
C2084       C  0.57363705  0.33896304  0.45978880     0.62900
H2085       H  0.51720227  0.31898353  0.47895202     0.12300
C2086       C  0.40391458  0.23662076  0.45363153     0.55000
H2087       H  0.46119308  0.25057049  0.43583066     0.08100
C2088       C  0.54585353  0.26439493  0.43054958    -0.05700
C2089       C  0.56260309  0.26703435  0.41785009    -0.06500
C2090       C  0.57026647  0.29735905  0.40872201    -0.16100
C2091       C  0.56204685  0.32709673  0.41260012    -0.01700
C2092       C  0.54515859  0.32429498  0.42535574    -0.09200
C2093       C  0.53681601  0.23009930  0.43978965     0.65100
H2094       H  0.56959333  0.24492667  0.41487814     0.10500
C2095       C  0.57008664  0.36118780  0.40339812     0.63500
H2096       H  0.53739769  0.34577829  0.42841490     0.07900
F2097       F  0.38706064  0.20302411  0.46146384    -0.19600
F2098       F  0.39502630  0.22504092  0.44030949    -0.15800
F2099       F  0.38787016  0.25960600  0.45670661    -0.19300
F2100       F  0.58437303  0.36928983  0.45070299    -0.22700
F2101       F  0.59470239  0.32066351  0.45706771    -0.24200
F2102       F  0.58371557  0.35508526  0.47257746    -0.18100
F2103       F  0.55355034  0.38229147  0.40830704    -0.20600
F2104       F  0.55463260  0.34756006  0.39074744    -0.21800
F2105       F  0.60998221  0.38659261  0.40231544    -0.19000
F2106       F  0.54989970  0.20641693  0.43446190    -0.19100
F2107       F  0.49689049  0.20717110  0.44173347    -0.22900
F2108       F  0.55480387  0.24383431  0.45211514    -0.24500
C2109       C  0.45630512  0.38204014  0.52808954    -0.11300
C2110       C  0.47197156  0.41751126  0.52100157     0.11300
C2111       C  0.47518775  0.41785020  0.50680376    -0.03100
C2112       C  0.46129117  0.38193762  0.50007201    -0.05800
C2113       C  0.44485047  0.34613209  0.50708636    -0.16600
C2114       C  0.44253213  0.34602012  0.52139459     0.02300
C2115       C  0.48755383  0.45424259  0.52883727     0.12200
C2116       C  0.49355640  0.45599287  0.49882711     0.62900
H2117       H  0.46301337  0.38153678  0.48918402     0.12300
C2118       C  0.42701573  0.30861694  0.52967733     0.55000
H2119       H  0.45514681  0.38296160  0.53898473     0.08100
C2120       C  0.46359313  0.46910500  0.53315477    -0.05700
C2121       C  0.48124890  0.50535141  0.53992235    -0.06500
C2122       C  0.52150374  0.52610205  0.54276853    -0.16100
C2123       C  0.54480043  0.50961765  0.53930855    -0.01700
C2124       C  0.52729010  0.47388830  0.53225851    -0.09200
C2125       C  0.41962969  0.44637620  0.53088583     0.65100
H2126       H  0.46371450  0.51785019  0.54305681     0.10500
C2127       C  0.58752105  0.52880309  0.54338541     0.63500
H2128       H  0.54459623  0.46105243  0.52920692     0.07900
F2129       F  0.38710635  0.28507318  0.52782774    -0.19600
F2130       F  0.43360067  0.31650062  0.54332921    -0.15800
F2131       F  0.44545956  0.28838129  0.52583677    -0.19300
F2132       F  0.53174237  0.48039921  0.50294326    -0.22700
F2133       F  0.47269140  0.47486035  0.50084922    -0.24200
F2134       F  0.49403947  0.44956882  0.48512891    -0.18100
F2135       F  0.60212573  0.50396889  0.54136098    -0.20600
F2136       F  0.59161631  0.53848492  0.55692875    -0.21800
F2137       F  0.60970780  0.56236378  0.53581612    -0.19000
F2138       F  0.40189564  0.46618001  0.53593296    -0.19100
F2139       F  0.40332928  0.41040215  0.53731419    -0.22900
F2140       F  0.41143037  0.44025419  0.51727766    -0.24500
C2141       C  0.73481032  0.39741235  0.77890006    -0.11300
C2142       C  0.77571854  0.41680568  0.77839017     0.11300
C2143       C  0.79700708  0.41866632  0.79009480    -0.03100
C2144       C  0.77623398  0.40011202  0.80194824    -0.05800
C2145       C  0.73519227  0.38034446  0.80244656    -0.16600
C2146       C  0.71403883  0.37852635  0.79068909     0.02300
C2147       C  0.79524117  0.43463309  0.76536297     0.12200
C2148       C  0.84139268  0.44019752  0.79006762     0.62900
H2149       H  0.79193105  0.40103078  0.81099997     0.12300
C2150       C  0.66976659  0.35632152  0.79051859     0.55000
H2151       H  0.71923338  0.39690131  0.76987058     0.08100
C2152       C  0.79799085  0.41185303  0.75485675    -0.05700
C2153       C  0.81707174  0.43072483  0.74280984    -0.06500
C2154       C  0.83157902  0.47091334  0.74078421    -0.16100
C2155       C  0.82787095  0.49350779  0.75115438    -0.01700
C2156       C  0.80986688  0.47486510  0.76336044    -0.09200
C2157       C  0.78013011  0.36771594  0.75627504     0.65100
H2158       H  0.81998850  0.41403195  0.73470084     0.10500
C2159       C  0.84347499  0.53719144  0.74942735     0.63500
H2160       H  0.80665567  0.49145908  0.77143720     0.07900
F2161       F  0.65534722  0.31835561  0.79515297    -0.19600
F2162       F  0.65501875  0.35407438  0.77769517    -0.15800
F2163       F  0.65684172  0.37566910  0.79869980    -0.19300
F2164       F  0.85606310  0.47978811  0.78783340    -0.22700
F2165       F  0.85458534  0.42553588  0.78002135    -0.24200
F2166       F  0.85603843  0.43608109  0.80222393    -0.18100
F2167       F  0.82243480  0.54309633  0.73955017    -0.20600
F2168       F  0.88252630  0.55600115  0.74577992    -0.21800
F2169       F  0.84044602  0.55427791  0.76119729    -0.19000
F2170       F  0.78792091  0.35158329  0.74516667    -0.19100
F2171       F  0.73997582  0.34993218  0.75754941    -0.22900
F2172       F  0.79499202  0.35925513  0.76753981    -0.24500
C2173       C  0.06282211  0.50467257  0.69192552    -0.11300
C2174       C  0.05415082  0.53421432  0.69476853     0.11300
C2175       C  0.08391154  0.57420536  0.69360778    -0.03100
C2176       C  0.12201199  0.58319307  0.69022566    -0.05800
C2177       C  0.13088746  0.55371119  0.68760922    -0.16600
C2178       C  0.10070315  0.51379740  0.68807055     0.02300
C2179       C  0.01400669  0.52266815  0.69935128     0.12200
C2180       C  0.07562989  0.60726211  0.69611283     0.62900
H2181       H  0.14564777  0.61341002  0.69023771     0.12300
C2182       C  0.10833457  0.48118538  0.68417627     0.55000
H2183       H  0.03972208  0.47430666  0.69292706     0.08100
C2184       C  0.98231574  0.50966927  0.69028219    -0.05700
C2185       C  0.94621553  0.50309181  0.69522215    -0.06500
C2186       C  0.94081548  0.50883047  0.70886125    -0.16100
C2187       C  0.97233645  0.52055481  0.71803147    -0.01700
C2188       C  0.00827329  0.52663101  0.71307455    -0.09200
C2189       C  0.98679167  0.50340171  0.67543275     0.65100
H2190       H  0.92184335  0.49388105  0.68837548     0.10500
C2191       C  0.96901984  0.52849622  0.73281927     0.63500
H2192       H  0.03280424  0.53572115  0.71983342     0.07900
F2193       F  0.12613918  0.48932481  0.67167167    -0.19600
F2194       F  0.07403774  0.44516866  0.68339466    -0.15800
F2195       F  0.13238173  0.47821502  0.69357404    -0.19300
F2196       F  0.06704114  0.60812142  0.70956241    -0.22700
F2197       F  0.04423083  0.60166643  0.68837810    -0.24200
F2198       F  0.10739313  0.64356120  0.69279287    -0.18100
F2199       F  0.94329904  0.49373353  0.73925776    -0.20600
F2200       F  0.95579038  0.55470378  0.73401021    -0.21800
F2201       F  0.00470055  0.54461996  0.73937060    -0.19000
F2202       F  0.95305054  0.49313957  0.66823971    -0.19100
F2203       F  0.99493230  0.47349374  0.67397931    -0.22900
F2204       F  0.01694856  0.53746515  0.66986315    -0.24500
C2205       C  0.59945033  0.65118265  0.66756505    -0.11300
C2206       C  0.59999989  0.68587631  0.67092456     0.11300
C2207       C  0.63558296  0.72225221  0.67050406    -0.03100
C2208       C  0.66953774  0.72283318  0.66601928    -0.05800
C2209       C  0.66889489  0.68818266  0.66232834    -0.16600
C2210       C  0.63334741  0.65162075  0.66315331     0.02300
C2211       C  0.56231956  0.68328389  0.67419788     0.12200
C2212       C  0.63745175  0.76009912  0.67477344     0.62900
H2213       H  0.69700381  0.75042309  0.66539186     0.12300
C2214       C  0.63069863  0.61338462  0.65894157     0.55000
H2215       H  0.57186001  0.62371218  0.66819859     0.08100
C2216       C  0.53609093  0.67996847  0.66393852    -0.05700
C2217       C  0.50062215  0.67697215  0.66768903    -0.06500
C2218       C  0.49049269  0.67706190  0.68127711    -0.16100
C2219       C  0.51734865  0.68153609  0.69154940    -0.01700
C2220       C  0.55276041  0.68400753  0.68776903    -0.09200
C2221       C  0.54514737  0.67889764  0.64908871     0.65100
H2222       H  0.47971952  0.67300624  0.65993667     0.10500
C2223       C  0.50960379  0.68509438  0.70633668     0.63500
H2224       H  0.57334262  0.68635998  0.69539947     0.07900
F2225       F  0.59232640  0.58265341  0.65845226    -0.19600
F2226       F  0.65061281  0.60359717  0.66809778    -0.15800
F2227       F  0.64677802  0.61734154  0.64624770    -0.19300
F2228       F  0.62823318  0.75812386  0.68830204    -0.22700
F2229       F  0.61117195  0.76569594  0.66736505    -0.24200
F2230       F  0.67436517  0.79250686  0.67287051    -0.18100
F2231       F  0.48011607  0.64946012  0.71117955    -0.20600
F2232       F  0.49886832  0.71316919  0.70785465    -0.21800
F2233       F  0.54248000  0.69628225  0.71416590    -0.19000
F2234       F  0.51716639  0.67907410  0.64079907    -0.19100
F2235       F  0.54626799  0.64518334  0.64637403    -0.22900
F2236       F  0.58091583  0.71133438  0.64585794    -0.24500
C2237       C  0.78023460  0.77092710  0.60729643    -0.11300
C2238       C  0.82124224  0.79144182  0.60749823     0.11300
C2239       C  0.84117198  0.79038187  0.61917114    -0.03100
C2240       C  0.81903176  0.76750961  0.63019156    -0.05800
C2241       C  0.77796970  0.74578027  0.62984706    -0.16600
C2242       C  0.75803269  0.74727397  0.61819478     0.02300
C2243       C  0.84256380  0.81309860  0.59518152     0.12200
C2244       C  0.88558847  0.81277252  0.61989195     0.62900
H2245       H  0.83370736  0.76602611  0.63917824     0.12300
C2246       C  0.71378161  0.72258905  0.61692746     0.55000
H2247       H  0.76576366  0.77286548  0.59832496     0.08100
C2248       C  0.84716602  0.79371308  0.58394597    -0.05700
C2249       C  0.86875494  0.81630777  0.57276406    -0.06500
C2250       C  0.88497564  0.85723873  0.57241429    -0.16100
C2251       C  0.87988635  0.87651733  0.58367221    -0.01700
C2252       C  0.85842817  0.85383027  0.59484104    -0.09200
C2253       C  0.82926967  0.74937183  0.58380290     0.65100
H2254       H  0.87257768  0.80204569  0.56405885     0.10500
C2255       C  0.89769558  0.92084707  0.58416063     0.63500
H2256       H  0.85381427  0.86772530  0.60348974     0.07900
F2257       F  0.70115257  0.68380985  0.62006002    -0.19600
F2258       F  0.70134701  0.72343859  0.60398363    -0.15800
F2259       F  0.69637412  0.73673424  0.62554161    -0.19300
F2260       F  0.89973496  0.85267169  0.61898687    -0.22700
F2261       F  0.90074822  0.80151532  0.60941421    -0.24200
F2262       F  0.89892649  0.80579085  0.63186734    -0.18100
F2263       F  0.89429691  0.93355280  0.59682633    -0.20600
F2264       F  0.87887242  0.93219173  0.57509702    -0.21800
F2265       F  0.93704369  0.93938086  0.58101709    -0.19000
F2266       F  0.83880967  0.73666201  0.57218944    -0.19100
F2267       F  0.78896375  0.73111285  0.58447039    -0.22900
F2268       F  0.84259979  0.73773497  0.59471626    -0.24500
C2269       C  0.80101069  0.61077861  0.66299968    -0.11300
C2270       C  0.79790334  0.60699338  0.67706429     0.11300
C2271       C  0.77990815  0.62432793  0.68437950    -0.03100
C2272       C  0.76579199  0.64530153  0.67729979    -0.05800
C2273       C  0.76864772  0.64918295  0.66321838    -0.16600
C2274       C  0.78601761  0.63106542  0.65583149     0.02300
C2275       C  0.81327564  0.58431469  0.68398238     0.12200
C2276       C  0.77511841  0.62027863  0.69960313     0.62900
H2277       H  0.75256159  0.65927423  0.68280196     0.12300
C2278       C  0.78756056  0.63160989  0.64051608     0.55000
H2279       H  0.81513308  0.59740021  0.65767515     0.08100
C2280       C  0.79168533  0.54274728  0.68461812    -0.05700
C2281       C  0.80642980  0.52339186  0.69245175    -0.06500
C2282       C  0.84159970  0.54451533  0.69961603    -0.16100
C2283       C  0.86286769  0.58606758  0.69907821    -0.01700
C2284       C  0.84886556  0.60525825  0.69088482    -0.09200
C2285       C  0.75326295  0.51917863  0.67709639     0.65100
H2286       H  0.79060870  0.49162448  0.69307276     0.10500
C2287       C  0.89869842  0.60999766  0.70783832     0.63500
H2288       H  0.86474376  0.63702391  0.69024148     0.07900
F2289       F  0.79898393  0.60619454  0.63554824    -0.19600
F2290       F  0.81413195  0.66897252  0.63599215    -0.15800
F2291       F  0.75094165  0.62006368  0.63530933    -0.19300
F2292       F  0.81137083  0.63869456  0.70574331    -0.22700
F2293       F  0.75513777  0.58100544  0.70315415    -0.24200
F2294       F  0.75432384  0.63707763  0.70453574    -0.18100
F2295       F  0.91322027  0.64994368  0.70656125    -0.20600
F2296       F  0.92809063  0.60268832  0.70428907    -0.21800
F2297       F  0.88882710  0.59995256  0.72121420    -0.19000
F2298       F  0.73507302  0.47954364  0.68011846    -0.19100
F2299       F  0.76011221  0.52359525  0.66336624    -0.22900
F2300       F  0.72787870  0.53212872  0.68049098    -0.24500
C2301       C  0.33904643  0.07728005  0.88109578    -0.11300
C2302       C  0.35082140  0.07779699  0.86776281     0.11300
C2303       C  0.32648474  0.04680695  0.85895435    -0.03100
C2304       C  0.28980998  0.01715843  0.86368274    -0.05800
C2305       C  0.27770812  0.01612670  0.87711947    -0.16600
C2306       C  0.30327473  0.04660212  0.88610487     0.02300
C2307       C  0.39103277  0.10865970  0.86395776     0.12200
C2308       C  0.33969243  0.04441281  0.84476956     0.62900
H2309       H  0.27059165  0.99383322  0.85689839     0.12300
C2310       C  0.29457086  0.04622420  0.90105250     0.55000
H2311       H  0.35902908  0.10077298  0.88770044     0.08100
C2312       C  0.40062943  0.14706068  0.86009680    -0.05700
C2313       C  0.44004986  0.17504483  0.85733157    -0.06500
C2314       C  0.46949308  0.16547699  0.85836280    -0.16100
C2315       C  0.45980397  0.12721538  0.86243421    -0.01700
C2316       C  0.42061121  0.09948382  0.86525078    -0.09200
C2317       C  0.36954475  0.15853182  0.85922939     0.65100
H2318       H  0.44833037  0.20477827  0.85452464     0.10500
C2319       C  0.49090578  0.11606811  0.86416088     0.63500
H2320       H  0.41259400  0.07022357  0.86858752     0.07900
F2321       F  0.32614799  0.07553774  0.90802588    -0.19600
F2322       F  0.28605577  0.01066995  0.90665293    -0.15800
F2323       F  0.26339029  0.05214644  0.90285638    -0.19300
F2324       F  0.37302140  0.04165436  0.84532987    -0.22700
F2325       F  0.34775406  0.07755805  0.83752460    -0.24200
F2326       F  0.31141341  0.01188161  0.83786810    -0.18100
F2327       F  0.47567579  0.07856386  0.86936244    -0.20600
F2328       F  0.51952267  0.14210373  0.87288288    -0.21800
F2329       F  0.50744153  0.11722474  0.85179241    -0.19000
F2330       F  0.38483005  0.19670969  0.85468574    -0.19100
F2331       F  0.35338621  0.15567182  0.87182556    -0.22900
F2332       F  0.34036368  0.13384958  0.85043018    -0.24500
C2333       C  0.10105562  0.92223210  0.95482793    -0.11300
C2334       C  0.10434898  0.94835542  0.94462232     0.11300
C2335       C  0.08691573  0.97164994  0.94636151    -0.03100
C2336       C  0.06723482  0.96847802  0.95848554    -0.05800
C2337       C  0.06394716  0.94250325  0.96875757    -0.16600
C2338       C  0.08130455  0.91902275  0.96699916     0.02300
C2339       C  0.12564227  0.95028214  0.93206986     0.12200
C2340       C  0.08887612  0.99959423  0.93543534     0.62900
H2341       H  0.05363067  0.98601683  0.95998096     0.12300
C2342       C  0.08004257  0.89162218  0.97799517     0.55000
H2343       H  0.11412909  0.90429185  0.95314211     0.08100
C2344       C  0.16702182  0.97081313  0.93138904    -0.05700
C2345       C  0.18494926  0.97096779  0.91914480    -0.06500
C2346       C  0.16287458  0.95261192  0.90756084    -0.16100
C2347       C  0.12158819  0.93483887  0.90801514    -0.01700
C2348       C  0.10361748  0.93237140  0.92047277    -0.09200
C2349       C  0.19206438  0.99265284  0.94348504     0.65100
H2350       H  0.21646616  0.98489834  0.91860559     0.10500
C2351       C  0.09670140  0.92104445  0.89534792     0.63500
H2352       H  0.07200620  0.91701563  0.92120365     0.07900
F2353       F  0.10354040  0.87611046  0.97493508    -0.19600
F2354       F  0.04216854  0.86069263  0.97959752    -0.15800
F2355       F  0.09309651  0.91185877  0.99002843    -0.19300
F2356       F  0.06736881  0.97844653  0.92437160    -0.22700
F2357       F  0.12726041  0.02442918  0.93155395    -0.24200
F2358       F  0.07384713  0.02255213  0.93980701    -0.18100
F2359       F  0.09302159  0.88630881  0.89080847    -0.20600
F2360       F  0.11375263  0.94935633  0.88538865    -0.21800
F2361       F  0.05950630  0.91470979  0.89767561    -0.19000
F2362       F  0.23154343  0.01312113  0.94032941    -0.19100
F2363       F  0.18627293  0.96635294  0.95365482    -0.22900
F2364       F  0.18205301  0.01938814  0.94810443    -0.24500
C2365       C  0.94154695  0.50775990  0.82183891    -0.11300
C2366       C  0.93840015  0.50143500  0.83580605     0.11300
C2367       C  0.97086135  0.52474614  0.84417474    -0.03100
C2368       C  0.00426348  0.55654761  0.83840529    -0.05800
C2369       C  0.00715857  0.56404834  0.82447886    -0.16600
C2370       C  0.97594245  0.53817074  0.81590236     0.02300
C2371       C  0.90087899  0.46957760  0.84134724     0.12200
C2372       C  0.97049471  0.51548034  0.85904883     0.62900
H2373       H  0.02880921  0.57572421  0.84476851     0.12300
C2374       C  0.97855252  0.54234900  0.80065677     0.55000
H2375       H  0.91671946  0.48843963  0.81563193     0.08100
C2376       C  0.87023401  0.47617548  0.84504946    -0.05700
C2377       C  0.83525134  0.44448318  0.85005655    -0.06500
C2378       C  0.82932821  0.40633108  0.85073000    -0.16100
C2379       C  0.86006749  0.39974828  0.84698694    -0.01700
C2380       C  0.89564837  0.43184127  0.84247865    -0.09200
C2381       C  0.87353124  0.51584891  0.84291381     0.65100
H2382       H  0.81108810  0.44873473  0.85259708     0.10500
C2383       C  0.85555375  0.35924806  0.84774965     0.63500
H2384       H  0.91945091  0.42758274  0.83941965     0.07900
F2385       F  0.98744613  0.57974724  0.79696666    -0.19600
F2386       F  0.94373534  0.51576090  0.79446081    -0.15800
F2387       F  0.00725708  0.53535671  0.79592119    -0.19300
F2388       F  0.96474670  0.47810532  0.86047448    -0.22700
F2389       F  0.94073829  0.51731504  0.86560788    -0.24200
F2390       F  0.00545477  0.54151695  0.86527894    -0.18100
F2391       F  0.83038797  0.33528923  0.83779709    -0.20600
F2392       F  0.84090934  0.34269728  0.86023176    -0.21800
F2393       F  0.89098682  0.36091270  0.84598459    -0.19000
F2394       F  0.84119487  0.51644918  0.84787271    -0.19100
F2395       F  0.87648368  0.52410083  0.82927614    -0.22900
F2396       F  0.90626507  0.54509534  0.84935838    -0.24500
C2397       C  0.15053323  0.66322058  0.77126641    -0.11300
C2398       C  0.15709029  0.63189863  0.76952226     0.11300
C2399       C  0.14369490  0.60169044  0.77927850    -0.03100
C2400       C  0.12282422  0.60337136  0.79044962    -0.05800
C2401       C  0.11634986  0.63484873  0.79230142    -0.16600
C2402       C  0.13036006  0.66542213  0.78255870     0.02300
C2403       C  0.17955419  0.63236808  0.75758898     0.12200
C2404       C  0.15193074  0.56822724  0.77794893     0.62900
H2405       H  0.11212799  0.58047586  0.79802786     0.12300
C2406       C  0.12395927  0.70007545  0.78389531     0.55000
H2407       H  0.16190996  0.68627420  0.76373335     0.08100
C2408       C  0.16127606  0.61695053  0.74504877    -0.05700
C2409       C  0.18415018  0.61607398  0.73441650    -0.06500
C2410       C  0.22463168  0.63222893  0.73581514    -0.16100
C2411       C  0.24336257  0.64997988  0.74811145    -0.01700
C2412       C  0.22014399  0.64923653  0.75892859    -0.09200
C2413       C  0.11822339  0.60271548  0.74281780     0.65100
H2414       H  0.17078716  0.60360727  0.72477439     0.10500
C2415       C  0.28742950  0.66948363  0.74982458     0.63500
H2416       H  0.23344023  0.66198522  0.76854538     0.07900
F2417       F  0.13370897  0.72209196  0.77216580    -0.19600
F2418       F  0.14709895  0.72449423  0.79415111    -0.15800
F2419       F  0.08505049  0.68694013  0.78667090    -0.19300
F2420       F  0.19185077  0.58302714  0.77762063    -0.22700
F2421       F  0.13554385  0.54754976  0.76620786    -0.24200
F2422       F  0.13663898  0.54221745  0.78864713    -0.18100
F2423       F  0.30585814  0.70322731  0.74207660    -0.20600
F2424       F  0.30007713  0.64423996  0.74583198    -0.21800
F2425       F  0.29865230  0.67989296  0.76309825    -0.19000
F2426       F  0.10625848  0.58780438  0.72996594    -0.19100
F2427       F  0.11177977  0.63371668  0.74448372    -0.22900
F2428       F  0.09542659  0.57347734  0.75193823    -0.24500
C2429       C  0.09717684  0.75553461  0.84154476    -0.11300
C2430       C  0.13519676  0.77277097  0.84673533     0.11300
C2431       C  0.15792078  0.75495258  0.84446278    -0.03100
C2432       C  0.14187429  0.72056270  0.83663481    -0.05800
C2433       C  0.10375531  0.70324139  0.83148334    -0.16600
C2434       C  0.08098499  0.72096798  0.83383818     0.02300
C2435       C  0.15013370  0.80939350  0.85465013     0.12200
C2436       C  0.19847949  0.77173339  0.85051553     0.62900
H2437       H  0.15866255  0.70638467  0.83469641     0.12300
C2438       C  0.04029266  0.70414254  0.82791108     0.55000
H2439       H  0.08030062  0.76955873  0.84358976     0.08100
C2440       C  0.16622285  0.84655998  0.84837543    -0.05700
C2441       C  0.17981633  0.88003179  0.85654467    -0.06500
C2442       C  0.17644155  0.87725357  0.87065505    -0.16100
C2443       C  0.15948842  0.83971312  0.87691503    -0.01700
C2444       C  0.14671714  0.80637068  0.86870265    -0.09200
C2445       C  0.16816300  0.85067826  0.83312283     0.65100
H2446       H  0.19235550  0.90876811  0.85191956     0.10500
C2447       C  0.15554532  0.83449550  0.89212918     0.63500
H2448       H  0.13352983  0.77737478  0.87316763     0.07900
F2449       F  0.02555559  0.72886992  0.82990707    -0.19600
F2450       F  0.01497771  0.66850811  0.83393192    -0.15800
F2451       F  0.04142267  0.69875393  0.81417212    -0.19300
F2452       F  0.19569020  0.76945972  0.86441245    -0.22700
F2453       F  0.22200591  0.81058775  0.84676995    -0.24200
F2454       F  0.21649811  0.75136825  0.84630592    -0.18100
F2455       F  0.12802992  0.84316870  0.89684748    -0.20600
F2456       F  0.19118261  0.85895386  0.89822322    -0.21800
F2457       F  0.14353934  0.79629203  0.89593675    -0.19000
F2458       F  0.18676217  0.88963321  0.82912841    -0.19100
F2459       F  0.13071191  0.83194690  0.82788508    -0.22900
F2460       F  0.18845420  0.83399586  0.82770672    -0.24500
C2461       C  0.50906717  0.11826830  0.25918000    -0.11300
C2462       C  0.48856625  0.12841773  0.26826364     0.11300
C2463       C  0.44940228  0.11769583  0.26551597    -0.03100
C2464       C  0.43165076  0.09614512  0.25374598    -0.05800
C2465       C  0.45191124  0.08544547  0.24469328    -0.16600
C2466       C  0.49142255  0.09692550  0.24734864     0.02300
C2467       C  0.50922244  0.15106672  0.28047505     0.12200
C2468       C  0.42670895  0.12935038  0.27491646     0.62900
H2469       H  0.40175657  0.08781821  0.25140715     0.12300
C2470       C  0.51535875  0.08812265  0.23752666     0.55000
H2471       H  0.53921527  0.12743927  0.26144886     0.08100
C2472       C  0.51164961  0.13229104  0.29225220    -0.05700
C2473       C  0.53059602  0.15541010  0.30358980    -0.06500
C2474       C  0.54807042  0.19650270  0.30335709    -0.16100
C2475       C  0.54680113  0.21548735  0.29139658    -0.01700
C2476       C  0.52712279  0.19216541  0.28010797    -0.09200
C2477       C  0.49559523  0.08825007  0.29267475     0.65100
H2478       H  0.53268160  0.14155908  0.31272665     0.10500
C2479       C  0.56708451  0.25999369  0.29037894     0.63500
H2480       H  0.52547849  0.20578155  0.27084912     0.07900
F2481       F  0.50105690  0.04811517  0.23717939    -0.19600
F2482       F  0.55438313  0.10656630  0.24119190    -0.15800
F2483       F  0.51338205  0.10113037  0.22476276    -0.19300
F2484       F  0.44576701  0.16977634  0.27608509    -0.22700
F2485       F  0.42362564  0.11319689  0.28753532    -0.24200
F2486       F  0.38928537  0.11655197  0.27022407    -0.18100
F2487       F  0.60595747  0.27676021  0.29404602    -0.20600
F2488       F  0.54888235  0.27373191  0.29879483    -0.21800
F2489       F  0.56590166  0.27221164  0.27739760    -0.19000
F2490       F  0.49908125  0.07577565  0.30536646    -0.19100
F2491       F  0.51608326  0.07866756  0.28368702    -0.22900
F2492       F  0.45645693  0.06807755  0.28921219    -0.24500
C2493       C  0.42942701  0.86255793  0.20121179    -0.11300
C2494       C  0.40581011  0.87613061  0.19582434     0.11300
C2495       C  0.37797511  0.85369605  0.18583610    -0.03100
C2496       C  0.37077022  0.81568828  0.18299682    -0.05800
C2497       C  0.39122536  0.79983775  0.18954163    -0.16600
C2498       C  0.42342062  0.82511149  0.19797101     0.02300
C2499       C  0.40973981  0.91322973  0.20113228     0.12200
C2500       C  0.35546033  0.86964919  0.17843760     0.62900
H2501       H  0.34779848  0.79755872  0.17597414     0.12300
C2502       C  0.45187183  0.81349725  0.20345917     0.55000
H2503       H  0.45195471  0.88114089  0.20834445     0.08100
C2504       C  0.38943246  0.91346681  0.21286031    -0.05700
C2505       C  0.39225445  0.94896220  0.21690865    -0.06500
C2506       C  0.41461421  0.98386105  0.20964510    -0.16100
C2507       C  0.43603191  0.98397521  0.19819140    -0.01700
C2508       C  0.43332703  0.94845684  0.19414710    -0.09200
C2509       C  0.36517675  0.87644483  0.22113023     0.65100
H2510       H  0.37680520  0.94977964  0.22579646     0.10500
C2511       C  0.46236051  0.02161029  0.19053055     0.63500
H2512       H  0.44924132  0.94772526  0.18538493     0.07900
F2513       F  0.48609900  0.84592209  0.20793933    -0.19600
F2514       F  0.46192787  0.79584846  0.19343611    -0.15800
F2515       F  0.43517769  0.78795371  0.21419703    -0.19300
F2516       F  0.38130180  0.90461282  0.17214497    -0.22700
F2517       F  0.33271127  0.87615038  0.18743589    -0.24200
F2518       F  0.33131009  0.84403132  0.16859806    -0.18100
F2519       F  0.48200949  0.01561737  0.18011635    -0.20600
F2520       F  0.48988471  0.04914988  0.19920686    -0.21800
F2521       F  0.44033928  0.03628336  0.18505681    -0.19000
F2522       F  0.34658171  0.88289758  0.23178175    -0.19100
F2523       F  0.38914447  0.86373188  0.22634835    -0.22900
F2524       F  0.33681884  0.84713440  0.21315944    -0.24500
C2525       C  0.08798671  0.07174290  0.09420614    -0.11300
C2526       C  0.12702467  0.08102639  0.09462483     0.11300
C2527       C  0.14194764  0.06770700  0.08426956    -0.03100
C2528       C  0.11720494  0.04617341  0.07352326    -0.05800
C2529       C  0.07830365  0.03774485  0.07279933    -0.16600
C2530       C  0.06321861  0.05066940  0.08340103     0.02300
C2531       C  0.15125392  0.10411731  0.10626879     0.12200
C2532       C  0.18370628  0.07590689  0.08465632     0.62900
H2533       H  0.12827976  0.03596373  0.06549494     0.12300
C2534       C  0.02125923  0.04218020  0.08357614     0.55000
H2535       H  0.07728047  0.08184191  0.10240746     0.08100
C2536       C  0.16879910  0.14544391  0.10689804    -0.05700
C2537       C  0.19089215  0.16522399  0.11834847    -0.06500
C2538       C  0.19568310  0.14504600  0.12915868    -0.16100
C2539       C  0.17742879  0.10337821  0.12857642    -0.01700
C2540       C  0.15536431  0.08373567  0.11708206    -0.09200
C2541       C  0.16411782  0.16847625  0.09552824     0.65100
H2542       H  0.20468265  0.19688081  0.11894905     0.10500
C2543       C  0.17993754  0.07927382  0.14006807     0.63500
H2544       H  0.14099746  0.05204084  0.11639135     0.07900
F2545       F  0.01640192  0.06408581  0.07371758    -0.19600
F2546       F  0.01153892  0.05182278  0.09581973    -0.15800
F2547       F  0.99558423  0.00261314  0.08137432    -0.19300
F2548       F  0.18841680  0.05717672  0.09563371    -0.22700
F2549       F  0.20966097  0.11582597  0.08569968    -0.24200
F2550       F  0.19311020  0.06260607  0.07315784    -0.18100
F2551       F  0.15504664  0.03936624  0.13814401    -0.20600
F2552       F  0.16964799  0.08935374  0.15209633    -0.21800
F2553       F  0.21755629  0.08587952  0.14098505    -0.19000
F2554       F  0.18472165  0.20852270  0.09795123    -0.19100
F2555       F  0.12511306  0.15695195  0.09402022    -0.22900
F2556       F  0.17778678  0.16168292  0.08363375    -0.24500
C2557       C  0.22888680  0.36679763  0.18695685    -0.11300
C2558       C  0.22532602  0.35667021  0.17327118     0.11300
C2559       C  0.22353314  0.38187315  0.16357120    -0.03100
C2560       C  0.23024896  0.41877311  0.16775613    -0.05800
C2561       C  0.23774380  0.43091094  0.18133984    -0.16600
C2562       C  0.23491706  0.40352042  0.19123614     0.02300
C2563       C  0.22753591  0.32155270  0.16925780     0.12200
C2564       C  0.21508223  0.37000754  0.14884276     0.62900
H2565       H  0.23123986  0.43910419  0.16023466     0.12300
C2566       C  0.23798767  0.41244522  0.20620833     0.55000
H2567       H  0.22890125  0.34636865  0.19423513     0.08100
C2568       C  0.26404427  0.32350919  0.16796493    -0.05700
C2569       C  0.26463083  0.28970109  0.16388779    -0.06500
C2570       C  0.23017383  0.25462349  0.16061944    -0.16100
C2571       C  0.19355733  0.25283817  0.16177856    -0.01700
C2572       C  0.19294903  0.28635030  0.16633699    -0.09200
C2573       C  0.30227690  0.36150175  0.17063405     0.65100
H2574       H  0.29229478  0.29066733  0.16291638     0.10500
C2575       C  0.15521979  0.21586045  0.15834307     0.63500
H2576       H  0.16544914  0.28567285  0.16739424     0.07900
F2577       F  0.22612330  0.37900605  0.21390357    -0.19600
F2578       F  0.21429099  0.42750788  0.20948813    -0.15800
F2579       F  0.27627352  0.43924505  0.20957963    -0.19300
F2580       F  0.17809304  0.33731301  0.14767861    -0.22700
F2581       F  0.24218721  0.36116763  0.14380313    -0.24200
F2582       F  0.21637906  0.39960687  0.14098680    -0.18100
F2583       F  0.15274500  0.18387124  0.16497350    -0.20600
F2584       F  0.15302672  0.20949423  0.14458477    -0.21800
F2585       F  0.12318201  0.21878053  0.16210681    -0.19000
F2586       F  0.33446893  0.35751931  0.16826418    -0.19100
F2587       F  0.30369143  0.37271525  0.18391038    -0.22900
F2588       F  0.30517062  0.39093024  0.16230239    -0.24500
C2589       C  0.33125982  0.14532978  0.16940277    -0.11300
C2590       C  0.32136968  0.13677114  0.18302761     0.11300
C2591       C  0.29474156  0.14612075  0.18903126    -0.03100
C2592       C  0.27674900  0.16148303  0.18082785    -0.05800
C2593       C  0.28497255  0.16801338  0.16698436    -0.16600
C2594       C  0.31346853  0.16080995  0.16119404     0.02300
C2595       C  0.34012298  0.11853115  0.19070953     0.12200
C2596       C  0.28571948  0.14022344  0.20401670     0.62900
H2597       H  0.25542187  0.16779064  0.18511917     0.12300
C2598       C  0.32569767  0.16988960  0.14651634     0.55000
H2599       H  0.35257618  0.13889190  0.16517756     0.08100
C2600       C  0.32556771  0.07759323  0.19038794    -0.05700
C2601       C  0.34546363  0.06251068  0.19768559    -0.06500
C2602       C  0.37978116  0.08713887  0.20494625    -0.16100
C2603       C  0.39526210  0.12852682  0.20470409    -0.01700
C2604       C  0.37472167  0.14330532  0.19765603    -0.09200
C2605       C  0.28962316  0.05016301  0.18215072     0.65100
H2606       H  0.33425761  0.03116804  0.19777638     0.10500
C2607       C  0.43396208  0.15747076  0.21132192     0.63500
H2608       H  0.38566806  0.17460620  0.19740344     0.07900
F2609       F  0.29606258  0.14315057  0.13828209    -0.19600
F2610       F  0.35888472  0.16785942  0.14381729    -0.15800
F2611       F  0.33390284  0.20742834  0.14337698    -0.19300
F2612       F  0.31933326  0.16416629  0.21125838    -0.22700
F2613       F  0.27202848  0.10154668  0.20754591    -0.24200
F2614       F  0.25762788  0.14945115  0.20765149    -0.18100
F2615       F  0.44676037  0.19580205  0.20745291    -0.20600
F2616       F  0.46250761  0.14897675  0.20763384    -0.21800
F2617       F  0.42984645  0.15556628  0.22518608    -0.19000
F2618       F  0.27951771  0.01128571  0.18361972    -0.19100
F2619       F  0.29691662  0.05976659  0.16864552    -0.22900
F2620       F  0.25805996  0.05347564  0.18616509    -0.24500
C2621       C  0.46083199  0.05078360  0.34868357    -0.11300
C2622       C  0.47382118  0.02510062  0.34494485     0.11300
C2623       C  0.51438877  0.03845369  0.34492758    -0.03100
C2624       C  0.54068139  0.07765627  0.34848742    -0.05800
C2625       C  0.52782674  0.10371908  0.35194636    -0.16600
C2626       C  0.48712415  0.09007234  0.35216108     0.02300
C2627       C  0.44379951  0.98588865  0.34000531     0.12200
C2628       C  0.53179285  0.01327639  0.34113324     0.62900
H2629       H  0.57184086  0.08834144  0.34825889     0.12300
C2630       C  0.47149596  0.11726240  0.35521812     0.55000
H2631       H  0.42966759  0.03987826  0.34849093     0.08100
C2632       C  0.42233074  0.95393408  0.34883936    -0.05700
C2633       C  0.39113089  0.91900433  0.34359207    -0.06500
C2634       C  0.38129798  0.91520819  0.32985260    -0.16100
C2635       C  0.40402092  0.94680239  0.32090329    -0.01700
C2636       C  0.43492511  0.98186008  0.32622465    -0.09200
C2637       C  0.43226593  0.95709146  0.36372157     0.65100
H2638       H  0.37362332  0.89447416  0.35024836     0.10500
C2639       C  0.39499747  0.94427030  0.30593780     0.63500
H2640       H  0.45208560  0.00687056  0.31971701     0.07900
F2641       F  0.43144873  0.09900659  0.35330943    -0.19600
F2642       F  0.48915189  0.14952938  0.34676302    -0.15800
F2643       F  0.47921045  0.12949501  0.36848964    -0.19300
F2644       F  0.55693432  0.03027675  0.33032533    -0.22700
F2645       F  0.50412332  0.97527094  0.33762111    -0.24200
F2646       F  0.55282487  0.01156424  0.35195852    -0.18100
F2647       F  0.35634614  0.93376550  0.30403789    -0.20600
F2648       F  0.40176640  0.91664125  0.29998720    -0.21800
F2649       F  0.41824736  0.97976229  0.29944525    -0.19000
F2650       F  0.40883646  0.92209371  0.37046212    -0.19100
F2651       F  0.42714249  0.98585579  0.36962457    -0.22900
F2652       F  0.47078227  0.96679873  0.36527911    -0.24500
C2653       C  0.28768712  0.74135655  0.25165209    -0.11300
C2654       C  0.31450045  0.74831580  0.26197523     0.11300
C2655       C  0.34122542  0.73475077  0.26061316    -0.03100
C2656       C  0.34023694  0.71467223  0.24877789    -0.05800
C2657       C  0.31344419  0.70772083  0.23840156    -0.16600
C2658       C  0.28700822  0.72181301  0.23972688     0.02300
C2659       C  0.31294241  0.76879144  0.27430234     0.12200
C2660       C  0.37072575  0.74156342  0.27158009     0.62900
H2661       H  0.36008701  0.70362797  0.24761551     0.12300
C2662       C  0.25879927  0.71727952  0.22855176     0.55000
H2663       H  0.26700416  0.75126934  0.25307248     0.08100
C2664       C  0.32871090  0.80995381  0.27469950    -0.05700
C2665       C  0.32686396  0.82716743  0.28686615    -0.06500
C2666       C  0.30968136  0.80462035  0.29849391    -0.16100
C2667       C  0.29338846  0.76332290  0.29802549    -0.01700
C2668       C  0.29477234  0.74607566  0.28578980    -0.09200
C2669       C  0.34736787  0.83556617  0.26236110     0.65100
H2670       H  0.33860775  0.85856771  0.28737683     0.10500
C2671       C  0.27619789  0.73770162  0.31045177     0.63500
H2672       H  0.28208041  0.71454685  0.28510391     0.07900
F2673       F  0.24187835  0.73994049  0.23088434    -0.19600
F2674       F  0.22906828  0.67849742  0.22766102    -0.15800
F2675       F  0.27847398  0.72910319  0.21637839    -0.19300
F2676       F  0.35153036  0.72214585  0.28323006    -0.22700
F2677       F  0.39349505  0.78129915  0.27423937    -0.24200
F2678       F  0.39536528  0.72792909  0.26785478    -0.18100
F2679       F  0.24230066  0.73684878  0.31431059    -0.20600
F2680       F  0.30298481  0.75244595  0.32088520    -0.21800
F2681       F  0.26697612  0.69938820  0.30810573    -0.19000
F2682       F  0.36272316  0.87503773  0.26519124    -0.19100
F2683       F  0.31967758  0.82529871  0.25234901    -0.22900
F2684       F  0.37738899  0.83064446  0.25763991    -0.24500
C2685       C  0.94973728  0.78778535  0.42326768    -0.11300
C2686       C  0.98270520  0.80317607  0.43166081     0.11300
C2687       C  0.01440367  0.79802263  0.42816741    -0.03100
C2688       C  0.01302530  0.77973926  0.41587118    -0.05800
C2689       C  0.98052335  0.76511560  0.40724804    -0.16600
C2690       C  0.94790034  0.76858083  0.41107268     0.02300
C2691       C  0.98322923  0.82438712  0.44411931     0.12200
C2692       C  0.04919040  0.81100907  0.43750095     0.62900
H2693       H  0.03725311  0.77596332  0.41299855     0.12300
C2694       C  0.91158266  0.75276286  0.40233583     0.55000
H2695       H  0.92534077  0.79097255  0.42640152     0.08100
C2696       C  0.99251725  0.86409362  0.44388935    -0.05700
C2697       C  0.99433571  0.88277847  0.45619341    -0.06500
C2698       C  0.98701101  0.86292669  0.46854076    -0.16100
C2699       C  0.97745601  0.82317067  0.46872608    -0.01700
C2700       C  0.97498958  0.80438241  0.45643959    -0.09200
C2701       C  0.00033362  0.88649378  0.43071865     0.65100
H2702       H  0.00079534  0.91291552  0.45626764     0.10500
C2703       C  0.96965175  0.79909463  0.48147177     0.63500
H2704       H  0.96720532  0.77380335  0.45647613     0.07900
F2705       F  0.92191876  0.76609941  0.38923755    -0.19600
F2706       F  0.88629276  0.76468384  0.40694330    -0.15800
F2707       F  0.89170015  0.71215313  0.40246449    -0.19300
F2708       F  0.03717686  0.78869925  0.44914603    -0.22700
F2709       F  0.06523843  0.85020595  0.44080338    -0.24200
F2710       F  0.07823661  0.80633198  0.43162433    -0.18100
F2711       F  0.93077554  0.76976128  0.48165546    -0.20600
F2712       F  0.97754724  0.82075119  0.49315667    -0.21800
F2713       F  0.99291617  0.78231541  0.48148081    -0.19000
F2714       F  0.00941689  0.92487265  0.43279129    -0.19100
F2715       F  0.96754167  0.86842085  0.42259639    -0.22900
F2716       F  0.03139603  0.88733974  0.42407558    -0.24500
C2717       C  0.81045736  0.52033957  0.37339370    -0.11300
C2718       C  0.82787502  0.54489506  0.36231184     0.11300
C2719       C  0.81701998  0.52983182  0.34909884    -0.03100
C2720       C  0.78591982  0.49091536  0.34746129    -0.05800
C2721       C  0.76752084  0.46636970  0.35862622    -0.16600
C2722       C  0.78138870  0.48091664  0.37184256     0.02300
C2723       C  0.86053585  0.58488132  0.36522300     0.12200
C2724       C  0.83929484  0.55420133  0.33690949     0.62900
H2725       H  0.77633705  0.47909190  0.33743656     0.12300
C2726       C  0.76826381  0.45469250  0.38425002     0.55000
H2727       H  0.82080895  0.53229402  0.38336758     0.08100
C2728       C  0.85422659  0.61584999  0.36886366    -0.05700
C2729       C  0.88639591  0.65164252  0.37316008    -0.06500
C2730       C  0.92402436  0.65680227  0.37407531    -0.16100
C2731       C  0.92992531  0.62515571  0.37082253    -0.01700
C2732       C  0.89785688  0.58971864  0.36637340    -0.09200
C2733       C  0.81364221  0.61078849  0.36840637     0.65100
H2734       H  0.88243672  0.67596516  0.37585119     0.10500
C2735       C  0.96932709  0.62785996  0.37246753     0.63500
H2736       H  0.90141513  0.56495814  0.36397717     0.07900
F2737       F  0.73056502  0.44459334  0.38776862    -0.19600
F2738       F  0.79210582  0.47297926  0.39525955    -0.15800
F2739       F  0.77001504  0.42132095  0.38157999    -0.19300
F2740       F  0.87789414  0.56360096  0.33766978    -0.22700
F2741       F  0.83805545  0.58848649  0.33649951    -0.24200
F2742       F  0.82385113  0.53409656  0.32497416    -0.18100
F2743       F  0.96608699  0.59134179  0.37159271    -0.20600
F2744       F  0.98511599  0.64345013  0.38494776    -0.21800
F2745       F  0.99454605  0.65130969  0.36241928    -0.19000
F2746       F  0.81411209  0.64472148  0.37222129    -0.19100
F2747       F  0.78883183  0.58100156  0.37704778    -0.22900
F2748       F  0.79885973  0.60138937  0.35547633    -0.24500
C2749       C  0.20180584  0.81675237  0.35642746    -0.11300
C2750       C  0.16730420  0.79774941  0.34889412     0.11300
C2751       C  0.16891710  0.79244682  0.33488837    -0.03100
C2752       C  0.20556244  0.80500655  0.32893426    -0.05800
C2753       C  0.24048159  0.82339346  0.33646701    -0.16600
C2754       C  0.23862729  0.82969123  0.35053589     0.02300
C2755       C  0.12991558  0.78441149  0.35604083     0.12200
C2756       C  0.13216672  0.77428968  0.32626880     0.62900
H2757       H  0.20719003  0.80103569  0.31820651     0.12300
C2758       C  0.27462422  0.84881038  0.35953213     0.55000
H2759       H  0.19941638  0.82110717  0.36708718     0.08100
C2760       C  0.11028135  0.74787953  0.36283702    -0.05700
C2761       C  0.07494863  0.73721755  0.36941053    -0.06500
C2762       C  0.05951283  0.76221041  0.36965046    -0.16100
C2763       C  0.07982256  0.79933057  0.36327311    -0.01700
C2764       C  0.11500605  0.80986715  0.35652333    -0.09200
C2765       C  0.12668020  0.72047998  0.36326164     0.65100
H2766       H  0.05906929  0.70920605  0.37454755     0.10500
C2767       C  0.06394458  0.82708036  0.36331900     0.63500
H2768       H  0.13121115  0.83804976  0.35150641     0.07900
F2769       F  0.29553487  0.82973386  0.35807232    -0.19600
F2770       F  0.26484443  0.84702013  0.37302517    -0.15800
F2771       F  0.29798143  0.88804232  0.35619997    -0.19300
F2772       F  0.11504074  0.79719944  0.32693281    -0.22700
F2773       F  0.10570182  0.73695915  0.33082346    -0.24200
F2774       F  0.14023000  0.77145108  0.31287465    -0.18100
F2775       F  0.08731194  0.86075998  0.35590131    -0.20600
F2776       F  0.06224222  0.83823267  0.37638996    -0.21800
F2777       F  0.02681733  0.80854421  0.35779196    -0.19000
F2778       F  0.10309226  0.68687446  0.37068481    -0.19100
F2779       F  0.16330390  0.73935873  0.36914197    -0.22900
F2780       F  0.12974019  0.70912986  0.35036721    -0.24500
C2781       C  0.12585020  0.19818076  0.02108469    -0.11300
C2782       C  0.15300726  0.20484035  0.03131114     0.11300
C2783       C  0.15006759  0.17274025  0.03869279    -0.03100
C2784       C  0.11958737  0.13478919  0.03563478    -0.05800
C2785       C  0.09294609  0.12804038  0.02529384    -0.16600
C2786       C  0.09605466  0.15980170  0.01775840     0.02300
C2787       C  0.18480827  0.24548204  0.03420029     0.12200
C2788       C  0.17912257  0.17850680  0.04971429     0.62900
H2789       H  0.11645162  0.10978240  0.04123311     0.12300
C2790       C  0.06853289  0.15271632  0.00615512     0.55000
H2791       H  0.12868012  0.22316899  0.01558348     0.08100
C2792       C  0.22045905  0.26297919  0.02706075    -0.05700
C2793       C  0.25239182  0.29740304  0.03226140    -0.06500
C2794       C  0.25002357  0.31473114  0.04442712    -0.16100
C2795       C  0.21261720  0.29887455  0.05079351    -0.01700
C2796       C  0.18067614  0.26460105  0.04538210    -0.09200
C2797       C  0.22491188  0.24464029  0.01421003     0.65100
H2798       H  0.28000792  0.31019081  0.02695798     0.10500
C2799       C  0.20576541  0.31621124  0.06346675     0.63500
H2800       H  0.15247182  0.25071382  0.05036598     0.07900
F2801       F  0.07482203  0.18753085  0.00054939    -0.19600
F2802       F  0.03015592  0.13157723  0.01053673    -0.15800
F2803       F  0.07443975  0.13158728  0.99628989    -0.19300
F2804       F  0.17675237  0.20063853  0.06004680    -0.22700
F2805       F  0.21673597  0.19765325  0.04458010    -0.24200
F2806       F  0.17190264  0.14308050  0.05508132    -0.18100
F2807       F  0.21638990  0.35493212  0.06121872    -0.20600
F2808       F  0.22717943  0.31378621  0.07401584    -0.21800
F2809       F  0.16682902  0.29637256  0.06735037    -0.19000
F2810       F  0.26206041  0.26647477  0.00875572    -0.19100
F2811       F  0.19842266  0.24237289  0.00469198    -0.22900
F2812       F  0.21798671  0.20726085  0.01681337    -0.24500
C2813       C  0.34503117  0.48319835  0.08931714    -0.11300
C2814       C  0.32235973  0.46275707  0.10051025     0.11300
C2815       C  0.29995142  0.42124838  0.10035903    -0.03100
C2816       C  0.30100646  0.40134181  0.08878952    -0.05800
C2817       C  0.32421190  0.42168181  0.07761369    -0.16600
C2818       C  0.34715424  0.46338152  0.07789569     0.02300
C2819       C  0.32178548  0.48569609  0.11217348     0.12200
C2820       C  0.27508242  0.39827513  0.11237568     0.62900
H2821       H  0.28402340  0.36958417  0.08844691     0.12300
C2822       C  0.37372304  0.48718256  0.06629319     0.55000
H2823       H  0.36153489  0.51499003  0.08971581     0.08100
C2824       C  0.35189004  0.50132381  0.12190613    -0.05700
C2825       C  0.34752095  0.51999850  0.13324044    -0.06500
C2826       C  0.31493145  0.52485766  0.13483540    -0.16100
C2827       C  0.28603358  0.51120997  0.12454567    -0.01700
C2828       C  0.29002939  0.49157581  0.11341287    -0.09200
C2829       C  0.38862075  0.49877612  0.12022030     0.65100
H2830       H  0.36984614  0.53110952  0.14097017     0.10500
C2831       C  0.25164416  0.51794419  0.12494728     0.63500
H2832       H  0.26803485  0.48010186  0.10556081     0.07900
F2833       F  0.40565814  0.48206724  0.06577756    -0.19600
F2834       F  0.38764966  0.52696840  0.06778957    -0.15800
F2835       F  0.35361563  0.47539287  0.05422179    -0.19300
F2836       F  0.24541983  0.40643507  0.11424705    -0.22700
F2837       F  0.29793919  0.40864425  0.12385518    -0.24200
F2838       F  0.25814915  0.35813896  0.11059231    -0.18100
F2839       F  0.23170054  0.50836274  0.11282093    -0.20600
F2840       F  0.26478165  0.55710467  0.12745420    -0.21800
F2841       F  0.22559656  0.49491791  0.13489414    -0.19000
F2842       F  0.41339142  0.51427573  0.13119369    -0.19100
F2843       F  0.40893509  0.51971341  0.10892273    -0.22900
F2844       F  0.37882459  0.46004742  0.11875473    -0.24500
C2845       C  0.64825367  0.40519128  0.95840367    -0.11300
C2846       C  0.65471002  0.42572773  0.94628643     0.11300
C2847       C  0.66343058  0.46519244  0.94640442    -0.03100
C2848       C  0.66411588  0.48243034  0.95887481    -0.05800
C2849       C  0.65723223  0.46159374  0.97100913    -0.16600
C2850       C  0.65162034  0.42325681  0.97085566     0.02300
C2851       C  0.65146182  0.40467596  0.93363115     0.12200
C2852       C  0.67113149  0.48856763  0.93343972     0.62900
H2853       H  0.66868820  0.51187968  0.95921145     0.12300
C2854       C  0.65109587  0.40102964  0.98338647     0.55000
H2855       H  0.64179867  0.37503129  0.95813420     0.08100
C2856       C  0.68103526  0.39726976  0.92932584    -0.05700
C2857       C  0.67527057  0.37640325  0.91729897    -0.06500
C2858       C  0.64187429  0.36426027  0.90918568    -0.16100
C2859       C  0.61232485  0.37194484  0.91363524    -0.01700
C2860       C  0.61737225  0.39116029  0.92601392    -0.09200
C2861       C  0.71895861  0.41230753  0.93716664     0.65100
H2862       H  0.69748788  0.37002260  0.91401479     0.10500
C2863       C  0.57645965  0.36180939  0.90529877     0.63500
H2864       H  0.59487201  0.39648272  0.92981299     0.07900
F2865       F  0.67581992  0.38628359  0.98151987    -0.19600
F2866       F  0.61367108  0.36993949  0.98555546    -0.15800
F2867       F  0.66374071  0.42453061  0.99473666    -0.19300
F2868       F  0.63752944  0.47254280  0.92572073    -0.22700
F2869       F  0.70047131  0.48792451  0.92611902    -0.24200
F2870       F  0.68271914  0.52743340  0.93597249    -0.18100
F2871       F  0.55189985  0.32161155  0.90486307    -0.20600
F2872       F  0.58771921  0.37613212  0.89243282    -0.21800
F2873       F  0.55558166  0.37820787  0.91050733    -0.19000
F2874       F  0.74465833  0.40364492  0.93073729    -0.19100
F2875       F  0.71136037  0.39535960  0.94981411    -0.22900
F2876       F  0.73731760  0.45265237  0.93853344    -0.24500
C2877       C  0.74411413  0.62641369  0.01786228    -0.11300
C2878       C  0.76631184  0.65162500  0.00737281     0.11300
C2879       C  0.75948951  0.63798264  0.99392223    -0.03100
C2880       C  0.72947083  0.59928748  0.99139267    -0.05800
C2881       C  0.70653202  0.57392898  0.00184284    -0.16600
C2882       C  0.71394837  0.58767413  0.01539399     0.02300
C2883       C  0.79793867  0.69163491  0.01094680     0.12200
C2884       C  0.78423348  0.66391622  0.98233279     0.62900
H2885       H  0.72365963  0.58853534  0.98112636     0.12300
C2886       C  0.69098587  0.56196915  0.02730017     0.55000
H2887       H  0.75062822  0.63765140  0.02806894     0.08100
C2888       C  0.79064756  0.72259350  0.01349704    -0.05700
C2889       C  0.82246904  0.75979249  0.01673458    -0.06500
C2890       C  0.86080891  0.76667276  0.01737567    -0.16100
C2891       C  0.86777339  0.73534043  0.01527809    -0.01700
C2892       C  0.83590430  0.69802622  0.01222210    -0.09200
C2893       C  0.74968196  0.71654110  0.01261196     0.65100
H2894       H  0.81783770  0.78423159  0.01840995     0.10500
C2895       C  0.90847451  0.74113003  0.01632383     0.63500
H2896       H  0.84043174  0.67354065  0.01051437     0.07900
F2897       F  0.65323336  0.55528053  0.02709795    -0.19600
F2898       F  0.70753691  0.57951969  0.03950440    -0.15800
F2899       F  0.69011658  0.52654959  0.02676176    -0.19300
F2900       F  0.82248424  0.67279221  0.98386887    -0.22700
F2901       F  0.78334469  0.69841587  0.98211179    -0.24200
F2902       F  0.77096193  0.64562871  0.96997534    -0.18100
F2903       F  0.90745650  0.70560028  0.01652052    -0.20600
F2904       F  0.92627290  0.76103329  0.02807615    -0.21800
F2905       F  0.93057664  0.76245226  0.00535597    -0.19000
F2906       F  0.74929956  0.75058028  0.01560183    -0.19100
F2907       F  0.72515735  0.68790206  0.02164055    -0.22900
F2908       F  0.73509727  0.70499634  0.99973123    -0.24500
C2909       C  0.46300264  0.41512355  0.04239447    -0.11300
C2910       C  0.46400174  0.41860460  0.02834994     0.11300
C2911       C  0.42931577  0.40760235  0.02109291    -0.03100
C2912       C  0.39476909  0.39608421  0.02835971    -0.05800
C2913       C  0.39399462  0.39442198  0.04250742    -0.16600
C2914       C  0.42832602  0.40274282  0.04968983     0.02300
C2915       C  0.50210461  0.43428195  0.02152106     0.12200
C2916       C  0.42883807  0.40751947  0.00577577     0.62900
H2917       H  0.36810375  0.38874824  0.02302703     0.12300
C2918       C  0.42838846  0.39726534  0.06486018     0.55000
H2919       H  0.48994437  0.42281076  0.04760670     0.08100
C2920       C  0.52764786  0.47505961  0.01985389    -0.05700
C2921       C  0.56278587  0.48788727  0.01285498    -0.06500
C2922       C  0.57368956  0.46144530  0.00787162    -0.16100
C2923       C  0.54849201  0.42048105  0.01009103    -0.01700
C2924       C  0.51285884  0.40769083  0.01685959    -0.09200
C2925       C  0.51811810  0.50486493  0.02565549     0.65100
H2926       H  0.58214801  0.51905099  0.01122969     0.10500
C2927       C  0.55897799  0.39024944  0.00566830     0.63500
H2928       H  0.49279301  0.37665520  0.01853569     0.07900
F2929       F  0.42479966  0.42597044  0.07151055    -0.19600
F2930       F  0.46273387  0.39972145  0.06918288    -0.15800
F2931       F  0.39770399  0.36064006  0.06845798    -0.19300
F2932       F  0.43829776  0.38046142  0.00105427    -0.22700
F2933       F  0.45569123  0.44424730  0.00083399    -0.24200
F2934       F  0.39240755  0.39751501  0.00074076    -0.18100
F2935       F  0.53305558  0.35322614  0.01070685    -0.20600
F2936       F  0.59589604  0.40079149  0.01029584    -0.21800
F2937       F  0.55792685  0.38778435  0.99176931    -0.19000
F2938       F  0.54647503  0.54304762  0.02246900    -0.19100
F2939       F  0.51572978  0.50154213  0.03953985    -0.22900
F2940       F  0.48280243  0.49834531  0.02067129    -0.24500
C2941       C  0.22725055  0.50620972  0.61002617    -0.11300
C2942       C  0.18718136  0.49158177  0.60853141     0.11300
C2943       C  0.16609054  0.49758518  0.61883920    -0.03100
C2944       C  0.18659367  0.51985741  0.63020373    -0.05800
C2945       C  0.22692150  0.53485036  0.63170470    -0.16600
C2946       C  0.24784297  0.52820977  0.62135605     0.02300
C2947       C  0.16867806  0.47110252  0.59577256     0.12200
C2948       C  0.12208638  0.47976442  0.61795512     0.62900
H2949       H  0.17098979  0.52456780  0.63825917     0.12300
C2950       C  0.29179497  0.54471916  0.62191894     0.55000
H2951       H  0.24238908  0.50038030  0.60208567     0.08100
C2952       C  0.17261899  0.49228351  0.58380425    -0.05700
C2953       C  0.15473291  0.47121801  0.57201065    -0.06500
C2954       C  0.13319883  0.42999102  0.57182680    -0.16100
C2955       C  0.12994076  0.40872017  0.58377471    -0.01700
C2956       C  0.14833821  0.42991961  0.59556183    -0.09200
C2957       C  0.19494199  0.53695391  0.58355891     0.65100
H2958       H  0.15688687  0.48690945  0.56279697     0.10500
C2959       C  0.10609047  0.36410291  0.58429189     0.63500
H2960       H  0.14672275  0.41454122  0.60479639     0.07900
F2961       F  0.31069804  0.58375271  0.62564235    -0.19600
F2962       F  0.30022467  0.52372300  0.63108331    -0.15800
F2963       F  0.30670794  0.54258949  0.60951810    -0.19300
F2964       F  0.10402311  0.43925330  0.61782138    -0.22700
F2965       F  0.11249548  0.49215922  0.60630627    -0.24200
F2966       F  0.10753687  0.49039238  0.62881976    -0.18100
F2967       F  0.10307723  0.34999178  0.59727380    -0.20600
F2968       F  0.12375097  0.34858367  0.57641945    -0.21800
F2969       F  0.06856810  0.35092983  0.57963109    -0.19000
F2970       F  0.19389531  0.55151777  0.57097213    -0.19100
F2971       F  0.23372199  0.55132853  0.58683337    -0.22900
F2972       F  0.17870319  0.55093453  0.59274031    -0.24500
C2973       C  0.06736691  0.19786372  0.51681321    -0.11300
C2974       C  0.06392242  0.20804998  0.53007468     0.11300
C2975       C  0.05190137  0.17980625  0.54049611    -0.03100
C2976       C  0.04320001  0.14175917  0.53717727    -0.05800
C2977       C  0.04579780  0.13107620  0.52387135    -0.16600
C2978       C  0.05886083  0.15968772  0.51349348     0.02300
C2979       C  0.07061193  0.24782581  0.53265714     0.12200
C2980       C  0.04759194  0.18950120  0.55501826     0.62900
H2981       H  0.03299961  0.11949260  0.54497443     0.12300
C2982       C  0.06472338  0.15048890  0.49911804     0.55000
H2983       H  0.07622710  0.22003762  0.50903481     0.08100
C2984       C  0.10846641  0.28071875  0.53454020    -0.05700
C2985       C  0.11196950  0.31697358  0.53783331    -0.06500
C2986       C  0.07892651  0.32095839  0.53920080    -0.16100
C2987       C  0.04098238  0.28790073  0.53715570    -0.01700
C2988       C  0.03770189  0.25197040  0.53362221    -0.09200
C2989       C  0.14478061  0.27735332  0.53315587     0.65100
H2990       H  0.14061452  0.34256487  0.53945327     0.10500
C2991       C  0.00395645  0.28962269  0.53945608     0.63500
H2992       H  0.00916462  0.22625092  0.53195922     0.07900
F2993       F  0.08373726  0.18415259  0.49130992    -0.19600
F2994       F  0.02892427  0.12560196  0.49321963    -0.15800
F2995       F  0.08720484  0.13283644  0.49907440    -0.19300
F2996       F  0.01835523  0.19863106  0.55590987    -0.22700
F2997       F  0.08231426  0.22116594  0.55947240    -0.24200
F2998       F  0.03797410  0.15825279  0.56361575    -0.18100
F2999       F  0.00062167  0.31276118  0.52971402    -0.20600
F3000       F  0.00504536  0.30499310  0.55208916    -0.21800
F3001       F  0.97065078  0.25275862  0.53882623    -0.19000
F3002       F  0.17858779  0.31257687  0.53591992    -0.19100
F3003       F  0.14748520  0.26648450  0.52014050    -0.22900
F3004       F  0.14287325  0.24939591  0.54199622    -0.24500
C3005       C  0.85612347  0.61611995  0.50984207    -0.11300
C3006       C  0.88539571  0.65075778  0.50372379     0.11300
C3007       C  0.91107169  0.64854908  0.49422394    -0.03100
C3008       C  0.90623355  0.61160414  0.49112952    -0.05800
C3009       C  0.87700463  0.57723573  0.49722225    -0.16600
C3010       C  0.85149902  0.57918018  0.50671420     0.02300
C3011       C  0.89097915  0.68917296  0.50843737     0.12200
C3012       C  0.94312260  0.68481348  0.48720245     0.62900
H3013       H  0.92556735  0.60917776  0.48398479     0.12300
C3014       C  0.82023456  0.54231085  0.51364009     0.55000
H3015       H  0.83747683  0.61839116  0.51732188     0.08100
C3016       C  0.86809483  0.70485661  0.50373512    -0.05700
C3017       C  0.87766394  0.74285721  0.50795013    -0.06500
C3018       C  0.90927018  0.76568634  0.51672182    -0.16100
C3019       C  0.93047658  0.74838173  0.52208686    -0.01700
C3020       C  0.92033472  0.71023264  0.51794153    -0.09200
C3021       C  0.83383707  0.68154652  0.49428706     0.65100
H3022       H  0.86078385  0.75535775  0.50414659     0.10500
C3023       C  0.96491075  0.77003736  0.53163270     0.63500
H3024       H  0.93637226  0.69676533  0.52171705     0.07900
F3025       F  0.79511404  0.51618213  0.50409614    -0.19600
F3026       F  0.79844842  0.55030218  0.52261466    -0.15800
F3027       F  0.83754563  0.52492683  0.52069376    -0.19300
F3028       F  0.96829714  0.71161849  0.49655538    -0.22700
F3029       F  0.92640942  0.70166829  0.47960383    -0.24200
F3030       F  0.96515113  0.67595574  0.47863691    -0.18100
F3031       F  0.98160500  0.74780045  0.53505114    -0.20600
F3032       F  0.95265878  0.77902340  0.54345850    -0.21800
F3033       F  0.99361491  0.80400548  0.52553860    -0.19000
F3034       F  0.81673551  0.70293320  0.49026654    -0.19100
F3035       F  0.80562732  0.64800610  0.50074053    -0.22900
F3036       F  0.84621994  0.67089702  0.48286866    -0.24500
C3037       C  0.80898222  0.40416170  0.45305778    -0.11300
C3038       C  0.79645809  0.42207852  0.44382989     0.11300
C3039       C  0.79975478  0.45850631  0.44693148    -0.03100
C3040       C  0.81859774  0.47746210  0.45893615    -0.05800
C3041       C  0.83306320  0.46062455  0.46809463    -0.16600
C3042       C  0.82674588  0.42226307  0.46530112     0.02300
C3043       C  0.77741671  0.40044241  0.43137038     0.12200
C3044       C  0.78337874  0.47719282  0.43759822     0.62900
H3045       H  0.82256082  0.50608065  0.46111624     0.12300
C3046       C  0.83746742  0.39940003  0.47502706     0.55000
H3047       H  0.80465195  0.37556870  0.45049364     0.08100
C3048       C  0.79897401  0.40314217  0.41964430    -0.05700
C3049       C  0.77833060  0.38333514  0.40798307    -0.06500
C3050       C  0.73733031  0.36184062  0.40780728    -0.16100
C3051       C  0.71602816  0.35717333  0.41980951    -0.01700
C3052       C  0.73667966  0.37636418  0.43149719    -0.09200
C3053       C  0.84338997  0.42663059  0.41949646     0.65100
H3054       H  0.79399515  0.38531828  0.39879325     0.10500
C3055       C  0.67174813  0.33301873  0.42023326     0.63500
H3056       H  0.72109531  0.37401685  0.44074936     0.07900
F3057       F  0.87766062  0.41619664  0.47560194    -0.19600
F3058       F  0.82202363  0.36067569  0.47106871    -0.15800
F3059       F  0.82268719  0.39890206  0.48770368    -0.19300
F3060       F  0.74359797  0.45221985  0.43594808    -0.22700
F3061       F  0.80142986  0.48457648  0.42515592    -0.24200
F3062       F  0.78908126  0.51235652  0.44266963    -0.18100
F3063       F  0.65866458  0.29665107  0.41438652    -0.20600
F3064       F  0.65750545  0.32691854  0.43329854    -0.21800
F3065       F  0.65685033  0.35282162  0.41332686    -0.19000
F3066       F  0.85833796  0.42670797  0.40687064    -0.19100
F3067       F  0.85776619  0.41046124  0.42854330    -0.22900
F3068       F  0.85667218  0.46516646  0.42308621    -0.24500
C3069       C  0.98956774  0.50055404  0.51322421    -0.11300
C3070       C  0.97370919  0.46055454  0.51603035     0.11300
C3071       C  0.93389019  0.43351916  0.51333418    -0.03100
C3072       C  0.91135565  0.44760428  0.50737202    -0.05800
C3073       C  0.92714093  0.48763154  0.50438992    -0.16600
C3074       C  0.96691830  0.51479359  0.50738962     0.02300
C3075       C  0.99918488  0.44823143  0.52249270     0.12200
C3076       C  0.91510602  0.39027307  0.51703498     0.62900
H3077       H  0.88084200  0.42740055  0.50514873     0.12300
C3078       C  0.98576536  0.55829151  0.50420923     0.55000
H3079       H  0.01998028  0.52054971  0.51571067     0.08100
C3080       C  0.02347630  0.43878576  0.51492002    -0.05700
C3081       C  0.04611022  0.42636834  0.52185607    -0.06500
C3082       C  0.04585817  0.42436090  0.53598494    -0.16100
C3083       C  0.02217559  0.43488270  0.54356692    -0.01700
C3084       C  0.99923713  0.44682545  0.53658284    -0.09200
C3085       C  0.02590801  0.44243118  0.49964812     0.65100
H3086       H  0.06453981  0.41837494  0.51628989     0.10500
C3087       C  0.01973268  0.43217433  0.55886578     0.63500
H3088       H  0.98075276  0.45494971  0.54205034     0.07900
F3089       F  0.02576650  0.57814015  0.50638148    -0.19600
F3090       F  0.96991438  0.57500777  0.51238736    -0.15800
F3091       F  0.97955372  0.56340787  0.49083271    -0.19300
F3092       F  0.91622508  0.38647550  0.53084938    -0.22700
F3093       F  0.93484886  0.37389941  0.51097335    -0.24200
F3094       F  0.87640189  0.36894630  0.51298115    -0.18100
F3095       F  0.05513827  0.45966685  0.56443976    -0.20600
F3096       F  0.01036731  0.39491536  0.56295460    -0.21800
F3097       F  0.99138040  0.43935102  0.56389148    -0.19000
F3098       F  0.05095088  0.43114345  0.49430305    -0.19100
F3099       F  0.03964107  0.48102637  0.49599218    -0.22900
F3100       F  0.98944002  0.41902857  0.49397975    -0.24500
C3101       C  0.77402552  0.61445788  0.87394470    -0.11300
C3102       C  0.73799878  0.58359596  0.86935261     0.11300
C3103       C  0.70516804  0.58859496  0.86875024    -0.03100
C3104       C  0.70957857  0.62459476  0.87284477    -0.05800
C3105       C  0.74556196  0.65578776  0.87737505    -0.16600
C3106       C  0.77864208  0.65094366  0.87779604     0.02300
C3107       C  0.73386074  0.54481128  0.86651313     0.12200
C3108       C  0.66541635  0.55580597  0.86395619     0.62900
H3109       H  0.68438362  0.62824958  0.87286757     0.12300
C3110       C  0.81868015  0.68401315  0.88207747     0.55000
H3111       H  0.79840580  0.60948676  0.87467714     0.08100
C3112       C  0.74417768  0.53523817  0.85400539    -0.05700
C3113       C  0.73372829  0.49586282  0.85156730    -0.06500
C3114       C  0.71367114  0.46653179  0.86130348    -0.16100
C3115       C  0.70448681  0.47680417  0.87394534    -0.01700
C3116       C  0.71593864  0.51603609  0.87644455    -0.09200
C3117       C  0.76551778  0.56638041  0.84330310     0.65100
H3118       H  0.74087230  0.48762745  0.84204074     0.10500
C3119       C  0.68146942  0.44655896  0.88472513     0.63500
H3120       H  0.70934480  0.52435474  0.88607012     0.07900
F3121       F  0.84770192  0.67539312  0.87928881    -0.19600
F3122       F  0.81884563  0.69021833  0.89579887    -0.15800
F3123       F  0.82779892  0.71815794  0.87524069    -0.19300
F3124       F  0.65050418  0.52479247  0.87294707    -0.22700
F3125       F  0.66900355  0.54269377  0.85141706    -0.24200
F3126       F  0.63860792  0.56824054  0.86287299    -0.18100
F3127       F  0.70636367  0.43816331  0.89176735    -0.20600
F3128       F  0.65183993  0.41276486  0.87889925    -0.21800
F3129       F  0.66425829  0.45998546  0.89376669    -0.19000
F3130       F  0.77471708  0.55144673  0.83218826    -0.19100
F3131       F  0.80003801  0.59666286  0.84850251    -0.22900
F3132       F  0.74233571  0.58118025  0.83908731    -0.24500
C3133       C  0.82150901  0.82481407  0.95671510    -0.11300
C3134       C  0.84319085  0.82343616  0.94578048     0.11300
C3135       C  0.88426186  0.84100002  0.94687397    -0.03100
C3136       C  0.90220024  0.85791158  0.95923328    -0.05800
C3137       C  0.88057159  0.85889940  0.97028627    -0.16600
C3138       C  0.83946966  0.84228159  0.96904731     0.02300
C3139       C  0.82207598  0.80304777  0.93328724     0.12200
C3140       C  0.90900862  0.84239342  0.93495137     0.62900
H3141       H  0.93360968  0.87140628  0.96027944     0.12300
C3142       C  0.81443253  0.84185510  0.98073073     0.55000
H3143       H  0.79021064  0.81179886  0.95549176     0.08100
C3144       C  0.80391420  0.76184994  0.93186311    -0.05700
C3145       C  0.78593295  0.74466430  0.91952290    -0.06500
C3146       C  0.78496127  0.76719547  0.90869877    -0.16100
C3147       C  0.80303816  0.80866387  0.91025370    -0.01700
C3148       C  0.82094562  0.82568396  0.92263801    -0.09200
C3149       C  0.80341880  0.73623196  0.94338420     0.65100
H3150       H  0.77187708  0.71313379  0.91831815     0.10500
C3151       C  0.80447595  0.83533217  0.89895567     0.63500
H3152       H  0.83456568  0.85709227  0.92413174     0.07900
F3153       F  0.77487762  0.81960995  0.97785501    -0.19600
F3154       F  0.82295470  0.87967286  0.98351011    -0.15800
F3155       F  0.82155023  0.82596704  0.99204614    -0.19300
F3156       F  0.90613139  0.86449538  0.92470303    -0.22700
F3157       F  0.89621493  0.80485307  0.93025997    -0.24200
F3158       F  0.94811521  0.85923477  0.93834536    -0.18100
F3159       F  0.76761529  0.82998478  0.89696667    -0.20600
F3160       F  0.81763988  0.82706898  0.88718834    -0.21800
F3161       F  0.82953796  0.87461859  0.90191791    -0.19000
F3162       F  0.78496424  0.69696967  0.93980733    -0.19100
F3163       F  0.78363824  0.73967194  0.95428302    -0.22900
F3164       F  0.84124456  0.74780802  0.94722484    -0.24500
C3165       C  0.43951921  0.76004481  0.78590323    -0.11300
C3166       C  0.46354088  0.76220589  0.77514749     0.11300
C3167       C  0.50470821  0.78295709  0.77677971    -0.03100
C3168       C  0.52050520  0.80207744  0.78909116    -0.05800
C3169       C  0.49651570  0.80000757  0.79982004    -0.16600
C3170       C  0.45536812  0.77737972  0.79846363     0.02300
C3171       C  0.44467950  0.74242943  0.76228598     0.12200
C3172       C  0.53179470  0.78435510  0.76568022     0.62900
H3173       H  0.55192588  0.81871456  0.79049918     0.12300
C3174       C  0.42856518  0.76959229  0.81041274     0.55000
H3175       H  0.40812199  0.74378572  0.78445436     0.08100
C3176       C  0.42583921  0.70115498  0.76068190    -0.05700
C3177       C  0.40767744  0.68458721  0.74830025    -0.06500
C3178       C  0.40772229  0.70788430  0.73760091    -0.16100
C3179       C  0.42814155  0.74938562  0.73904731    -0.01700
C3180       C  0.44563830  0.76583528  0.75151390    -0.09200
C3181       C  0.42435825  0.67464460  0.77204041     0.65100
H3182       H  0.39219742  0.65299408  0.74701054     0.10500
C3183       C  0.43239445  0.77637303  0.72746333     0.63500
H3184       H  0.46016705  0.79731578  0.75300347     0.07900
F3185       F  0.38952517  0.74604333  0.80699549    -0.19600
F3186       F  0.43379443  0.80450487  0.81536545    -0.15800
F3187       F  0.43713515  0.75076523  0.82042708    -0.19300
F3188       F  0.53005170  0.80509947  0.75475890    -0.22700
F3189       F  0.52081858  0.74665354  0.76163806    -0.24200
F3190       F  0.57030122  0.80242474  0.76995366    -0.18100
F3191       F  0.39672533  0.77311230  0.72485762    -0.20600
F3192       F  0.44550441  0.76632689  0.71607229    -0.21800
F3193       F  0.45892084  0.81536947  0.73036374    -0.19000
F3194       F  0.40933375  0.63627996  0.76775171    -0.19100
F3195       F  0.40080555  0.67458434  0.78231775    -0.22900
F3196       F  0.46152665  0.68782072  0.77701517    -0.24500
C3197       C  0.52541150  0.96050845  0.83526162    -0.11300
C3198       C  0.56328148  0.98924878  0.83907224     0.11300
C3199       C  0.59332699  0.98003149  0.83951402    -0.03100
C3200       C  0.58487963  0.94271798  0.83510793    -0.05800
C3201       C  0.54717420  0.91404846  0.83078894    -0.16600
C3202       C  0.51659630  0.92273930  0.83124093     0.02300
C3203       C  0.57061751  0.02893618  0.84246552     0.12200
C3204       C  0.63386219  0.00927276  0.84481323     0.62900
H3205       H  0.60784974  0.93556392  0.83508258     0.12300
C3206       C  0.47463802  0.89217742  0.82801479     0.55000
H3207       H  0.50276632  0.96813595  0.83539364     0.08100
C3208       C  0.57703931  0.05674071  0.83234261    -0.05700
C3209       C  0.58505753  0.09418413  0.83625190    -0.06500
C3210       C  0.58688121  0.10481261  0.84988227    -0.16100
C3211       C  0.57971813  0.07647930  0.86003645    -0.01700
C3212       C  0.57112842  0.03870859  0.85606028    -0.09200
C3213       C  0.57567217  0.04702353  0.81746042     0.65100
H3214       H  0.59083148  0.11591564  0.82855736     0.10500
C3215       C  0.57997277  0.08518577  0.87492840     0.63500
H3216       H  0.56533211  0.01645924  0.86355555     0.07900
F3217       F  0.47101516  0.88429924  0.81435332    -0.19600
F3218       F  0.44895644  0.90479659  0.83142419    -0.15800
F3219       F  0.46391464  0.85822237  0.83523187    -0.19300
F3220       F  0.63132923  0.01751377  0.85819377    -0.22700
F3221       F  0.64987644  0.04372412  0.83744878    -0.24200
F3222       F  0.65906729  0.99477450  0.84402417    -0.18100
F3223       F  0.56681022  0.05177361  0.88275819    -0.20600
F3224       F  0.55560862  0.09995897  0.87720333    -0.21800
F3225       F  0.61750615  0.11213267  0.87906681    -0.19000
F3226       F  0.58455646  0.07901086  0.80933233    -0.19100
F3227       F  0.53858004  0.01708337  0.81409970    -0.22900
F3228       F  0.60236498  0.03528551  0.81470425    -0.24500
C3229       C  0.60843513  0.79925048  0.85725299    -0.11300
C3230       C  0.63137695  0.78954857  0.84923278     0.11300
C3231       C  0.62859762  0.78982187  0.83501579    -0.03100
C3232       C  0.60374235  0.80149943  0.82927664    -0.05800
C3233       C  0.58194034  0.81279728  0.83729061    -0.16600
C3234       C  0.58382647  0.81127793  0.85153682     0.02300
C3235       C  0.65631810  0.77701840  0.85612452     0.12200
C3236       C  0.65184627  0.77802191  0.82596844     0.62900
H3237       H  0.60160435  0.80252821  0.81841725     0.12300
C3238       C  0.55933812  0.82120076  0.86069479     0.55000
H3239       H  0.61028000  0.79756961  0.86810203     0.08100
C3240       C  0.69292135  0.80418703  0.86181871    -0.05700
C3241       C  0.71447218  0.78969526  0.86835234    -0.06500
C3242       C  0.70011188  0.74917396  0.86965847    -0.16100
C3243       C  0.66283633  0.72204083  0.86414547    -0.01700
C3244       C  0.64164900  0.73670514  0.85750287    -0.09200
C3245       C  0.70876256  0.84816416  0.86118411     0.65100
H3246       H  0.74284905  0.81007415  0.87255035     0.10500
C3247       C  0.64475714  0.67784316  0.86533702     0.63500
H3248       H  0.61313914  0.71671877  0.85326884     0.07900
F3249       F  0.56110894  0.81165563  0.87400124    -0.19600
F3250       F  0.52057539  0.80045237  0.85671550    -0.15800
F3251       F  0.57281464  0.86102104  0.86012624    -0.19300
F3252       F  0.64071830  0.73922656  0.82827141    -0.22700
F3253       F  0.69135722  0.80149901  0.82859596    -0.24200
F3254       F  0.64585517  0.78189195  0.81244374    -0.18100
F3255       F  0.64557578  0.66753823  0.87860913    -0.20600
F3256       F  0.66522635  0.66588243  0.85728517    -0.21800
F3257       F  0.60611489  0.65774746  0.86116612    -0.19000
F3258       F  0.74560399  0.86942242  0.86688555    -0.19100
F3259       F  0.68413213  0.85718936  0.86813293    -0.22900
F3260       F  0.71133862  0.86000805  0.84792718    -0.24500
C3261       C  0.14643981  0.38461384  0.66762644    -0.11300
C3262       C  0.13683565  0.35919301  0.67862745     0.11300
C3263       C  0.15689986  0.37337925  0.69099832    -0.03100
C3264       C  0.18508332  0.41359751  0.69208781    -0.05800
C3265       C  0.19461440  0.43915087  0.68106581    -0.16600
C3266       C  0.17505265  0.42450869  0.66857955     0.02300
C3267       C  0.10552216  0.31782328  0.67659803     0.12200
C3268       C  0.14919420  0.34604383  0.70283041     0.62900
H3269       H  0.20058662  0.42531034  0.70148215     0.12300
C3270       C  0.18379860  0.45062610  0.65629631     0.55000
H3271       H  0.13119431  0.37269949  0.65819991     0.08100
C3272       C  0.06557340  0.30662968  0.67700335    -0.05700
C3273       C  0.03743810  0.26788785  0.67356344    -0.06500
C3274       C  0.04794118  0.24054880  0.66922956    -0.16100
C3275       C  0.08816737  0.25196306  0.66883206    -0.01700
C3276       C  0.11627482  0.29055119  0.67264822    -0.09200
C3277       C  0.05279332  0.33591394  0.68053634     0.65100
H3278       H  0.00677715  0.25912745  0.67370333     0.10500
C3279       C  0.10178662  0.22417169  0.66427560     0.63500
H3280       H  0.14716489  0.30033870  0.67208789     0.07900
F3281       F  0.15613194  0.43219608  0.64625061    -0.19600
F3282       F  0.21989314  0.46024347  0.65107796    -0.15800
F3283       F  0.18392681  0.48450184  0.65981242    -0.19300
F3284       F  0.15931321  0.31848337  0.69934867    -0.22700
F3285       F  0.11004936  0.32692208  0.70630657    -0.24200
F3286       F  0.17080299  0.36617108  0.71405719    -0.18100
F3287       F  0.09611178  0.21801357  0.65054019    -0.20600
F3288       F  0.08114875  0.18868432  0.67099281    -0.21800
F3289       F  0.14117056  0.23926724  0.66686380    -0.19000
F3290       F  0.01249732  0.31809085  0.68146484    -0.19100
F3291       F  0.06545888  0.36458363  0.67069051    -0.22900
F3292       F  0.06847806  0.35349942  0.69278613    -0.24500
C3293       C  0.97647834  0.06908689  0.62505497    -0.11300
C3294       C  0.98799340  0.09136335  0.61313645     0.11300
C3295       C  0.00220634  0.13230955  0.61385812    -0.03100
C3296       C  0.00269011  0.14906454  0.62645916    -0.05800
C3297       C  0.99043398  0.12659087  0.63833558    -0.16600
C3298       C  0.97942138  0.08638058  0.63774378     0.02300
C3299       C  0.98409368  0.07090472  0.60004471     0.12200
C3300       C  0.01664563  0.15826448  0.60139469     0.62900
H3301       H  0.01172312  0.17989675  0.62708082     0.12300
C3302       C  0.97274769  0.06099960  0.65007496     0.55000
H3303       H  0.96604572  0.03789376  0.62448380     0.08100
C3304       C  0.01037147  0.05846344  0.59603305    -0.05700
C3305       C  0.00466634  0.03959343  0.58347341    -0.06500
C3306       C  0.97486242  0.03431412  0.57448423    -0.16100
C3307       C  0.94937446  0.04789384  0.57844090    -0.01700
C3308       C  0.95345168  0.06438377  0.59137923    -0.09200
C3309       C  0.04508756  0.06619877  0.60473625     0.65100
H3310       H  0.02416555  0.02931057  0.58045172     0.10500
C3311       C  0.92070920  0.04868824  0.56864770     0.63500
H3312       H  0.93351478  0.07385313  0.59467383     0.07900
F3313       F  0.99514635  0.04337385  0.64899717    -0.19600
F3314       F  0.93382134  0.03191145  0.65074841    -0.15800
F3315       F  0.98323929  0.08215366  0.66195127    -0.19300
F3316       F  0.98616743  0.14760544  0.59247707    -0.22700
F3317       F  0.04567658  0.15445354  0.59513467    -0.24200
F3318       F  0.03200688  0.19752991  0.60455758    -0.18100
F3319       F  0.89213251  0.01083513  0.56534612    -0.20600
F3320       F  0.94102936  0.06887611  0.55724000    -0.21800
F3321       F  0.90233620  0.06764009  0.57390208    -0.19000
F3322       F  0.06791403  0.05325647  0.59863565    -0.19100
F3323       F  0.03231985  0.04698815  0.61694077    -0.22900
F3324       F  0.06844239  0.10607287  0.60703422    -0.24500
C3325       C  0.54793429  0.91097690  0.71290486    -0.11300
C3326       C  0.52821780  0.91363793  0.70159802     0.11300
C3327       C  0.53951179  0.95092126  0.69601922    -0.03100
C3328       C  0.57135050  0.98448823  0.70179416    -0.05800
C3329       C  0.59153270  0.98165894  0.71292438    -0.16600
C3330       C  0.57996977  0.94444770  0.71857125     0.02300
C3331       C  0.49552023  0.87657664  0.69604567     0.12200
C3332       C  0.51801474  0.95522950  0.68408940     0.62900
H3333       H  0.58085505  0.01333655  0.69765308     0.12300
C3334       C  0.60155940  0.94015497  0.73044034     0.55000
H3335       H  0.53815608  0.88220012  0.71716753     0.08100
C3336       C  0.50212897  0.85008066  0.68850999    -0.05700
C3337       C  0.46988657  0.81333294  0.68508351    -0.06500
C3338       C  0.43139194  0.80277185  0.68860583    -0.16100
C3339       C  0.42472854  0.83107306  0.69496756    -0.01700
C3340       C  0.45717397  0.86695955  0.69903884    -0.09200
C3341       C  0.54302479  0.86045668  0.68415637     0.65100
H3342       H  0.47484175  0.79191936  0.68005975     0.10500
C3343       C  0.38398657  0.82485093  0.69683068     0.63500
H3344       H  0.45283362  0.88774345  0.70478696     0.07900
F3345       F  0.58711587  0.90115595  0.73381842    -0.19600
F3346       F  0.59755981  0.95893716  0.74151812    -0.15800
F3347       F  0.64082577  0.95671842  0.72735837    -0.19300
F3348       F  0.48037427  0.94462831  0.68786005    -0.22700
F3349       F  0.51640404  0.93141974  0.67360353    -0.24200
F3350       F  0.53633858  0.99351979  0.67939874    -0.18100
F3351       F  0.36457612  0.79877464  0.70720262    -0.20600
F3352       F  0.36295217  0.81053864  0.68501595    -0.21800
F3353       F  0.38550769  0.85977587  0.69989008    -0.19000
F3354       F  0.54243604  0.83158305  0.67607928    -0.19100
F3355       F  0.56578072  0.86500076  0.69530296    -0.22900
F3356       F  0.56022530  0.89510165  0.67688016    -0.24500
C3357       C  0.63542272  0.10677285  0.76601678    -0.11300
C3358       C  0.65519220  0.14752715  0.76414618     0.11300
C3359       C  0.67432739  0.16388258  0.75178363    -0.03100
C3360       C  0.67148064  0.13826231  0.74140299    -0.05800
C3361       C  0.65159291  0.09723776  0.74322009    -0.16600
C3362       C  0.63359354  0.08117205  0.75583483     0.02300
C3363       C  0.65745961  0.17184172  0.77587528     0.12200
C3364       C  0.69914621  0.20805489  0.74980559     0.62900
H3365       H  0.68590271  0.15022829  0.73185162     0.12300
C3366       C  0.61456261  0.03767240  0.75892755     0.55000
H3367       H  0.62204411  0.09526576  0.77574624     0.08100
C3368       C  0.62630134  0.17779145  0.77936351    -0.05700
C3369       C  0.62839678  0.19674744  0.79159823    -0.06500
C3370       C  0.65985551  0.20863490  0.80062159    -0.16100
C3371       C  0.69110925  0.20247964  0.79703375    -0.01700
C3372       C  0.68931582  0.18444222  0.78461072    -0.09200
C3373       C  0.59054066  0.16317190  0.77036980     0.65100
H3374       H  0.60484221  0.20172966  0.79433572     0.10500
C3375       C  0.72524630  0.21270886  0.80643471     0.63500
H3376       H  0.71226367  0.17863964  0.78176317     0.07900
F3377       F  0.58170011  0.01671853  0.75100800    -0.19600
F3378       F  0.60298046  0.02938244  0.77227874    -0.15800
F3379       F  0.64094418  0.02532120  0.75645625    -0.19300
F3380       F  0.73094725  0.22315399  0.75838784    -0.22700
F3381       F  0.67752911  0.22574365  0.75256951    -0.24200
F3382       F  0.71302854  0.21771847  0.73672689    -0.18100
F3383       F  0.74907589  0.19926112  0.80159416    -0.20600
F3384       F  0.71131391  0.19558179  0.81891359    -0.21800
F3385       F  0.74810985  0.25302708  0.80782891    -0.19000
F3386       F  0.56388082  0.17256889  0.77552823    -0.19100
F3387       F  0.57183673  0.12277878  0.76914899    -0.22900
F3388       F  0.60163046  0.17985044  0.75771405    -0.24500
C3389       C  0.85018734  0.08918087  0.68563119    -0.11300
C3390       C  0.84054221  0.11799893  0.68839173     0.11300
C3391       C  0.86725836  0.15765163  0.68506394    -0.03100
C3392       C  0.90199385  0.16667493  0.67826725    -0.05800
C3393       C  0.91118790  0.13760213  0.67498364    -0.16600
C3394       C  0.88509059  0.09819095  0.67895703     0.02300
C3395       C  0.80253588  0.10549095  0.69512999     0.12200
C3396       C  0.85936049  0.19027386  0.68882458     0.62900
H3397       H  0.92239764  0.19680756  0.67543119     0.12300
C3398       C  0.89400284  0.06577881  0.67641419     0.55000
H3399       H  0.82967931  0.05924693  0.68866123     0.08100
C3400       C  0.76689251  0.08818008  0.68788999    -0.05700
C3401       C  0.73186685  0.07595949  0.69502073    -0.06500
C3402       C  0.73140687  0.07979208  0.70909659    -0.16100
C3403       C  0.76711418  0.09574891  0.71638250    -0.01700
C3404       C  0.80213927  0.10854103  0.70918515    -0.09200
C3405       C  0.76590630  0.08222733  0.67273048     0.65100
H3406       H  0.70438292  0.06315705  0.68962362     0.10500
C3407       C  0.76836546  0.09757035  0.73169584     0.63500
H3408       H  0.82972414  0.12075246  0.71449476     0.07900
F3409       F  0.89211409  0.05851872  0.66274901    -0.19600
F3410       F  0.86748970  0.03110502  0.68278296    -0.15800
F3411       F  0.93088652  0.07683867  0.68121704    -0.19300
F3412       F  0.85633046  0.19170936  0.70266814    -0.22700
F3413       F  0.82486186  0.18347926  0.68298736    -0.24200
F3414       F  0.88909786  0.22671420  0.68455635    -0.18100
F3415       F  0.80499158  0.10792903  0.73662900    -0.20600
F3416       F  0.74179262  0.06114546  0.73697832    -0.21800
F3417       F  0.75949671  0.12526399  0.73618450    -0.19000
F3418       F  0.72835400  0.06566959  0.66762316    -0.19100
F3419       F  0.77983427  0.05741322  0.66965263    -0.22900
F3420       F  0.78896334  0.11789399  0.66637218    -0.24500
loop_ 
_geom_bond_atom_site_label_1 
_geom_bond_atom_site_label_2 
_geom_bond_distance 
_geom_bond_site_symmetry_2 
_ccdc_geom_bond_type 
C1            N2   1.358       .  A
C1            N6   1.361       .  A
C1         C3361   1.487       .  S
N2            C3   1.356       .  A
C3            N4   1.358       .  A
C3         C3402   1.486       .  S
N4            C5   1.358       .  A
C5            N6   1.361       .  A
C5         C3329   1.474   1_545  S
C7            N8   1.365       .  A
C7           N12   1.361   1_655  A
C7         C3297   1.487       .  S
N8            C9   1.363       .  A
C9           N10   1.356       .  A
C9         C3393   1.491       .  S
N10          C11   1.356   1_655  A
C11          N12   1.359       .  A
C11        C3274   1.489       .  S
C13          N14   1.357       .  A
C13          N18   1.363       .  A
C13        C3169   1.476       .  S
N14          C15   1.356       .  A
C15          N16   1.353       .  A
C15        C3233   1.476       .  S
N16          C17   1.357       .  A
C17          N18   1.363       .  A
C17        C3201   1.489       .  S
C19          N20   1.362       .  A
C19          N24   1.359       .  A
C19        C3146   1.492       .  S
N20          C21   1.359       .  A
C21          N22   1.357       .  A
C21        C3105   1.486       .  S
N22          C23   1.355       .  A
C23          N24   1.359       .  A
C23        C3242   1.487       .  S
C25          N26   1.352       .  A
C25          N30   1.364       .  A
C25        C3041   1.496       .  S
N26          C27   1.353       .  A
C27          N28   1.355       .  A
C27        C3073   1.476       .  S
N28          C29   1.357       .  A
C29          N30   1.361       .  A
C29        C3009   1.474       .  S
C31          N32   1.358       .  A
C31          N36   1.356       .  A
C31        C2954   1.479       .  S
N32          C33   1.359       .  A
C33          N34   1.355       .  A
C33        C2986   1.475       .  S
N34          C35   1.355       .  A
C35          N36   1.353       .  A
C35        C3082   1.474       .  S
C37          N38   1.356       .  A
C37          N42   1.360       .  A
C37        C2849   1.470       .  S
N38          C39   1.358       .  A
C39          N40   1.353   1_556  A
C39        C2881   1.484   1_556  S
N40          C41   1.357       .  A
C41          N42   1.358   1_554  A
C41        C2922   1.487       .  S
C43          N44   1.352       .  A
C43          N48   1.360       .  A
C43        C2817   1.477       .  S
N44          C45   1.351       .  A
C45          N46   1.357       .  A
C45        C2913   1.476       .  S
N46          C47   1.362       .  A
C47          N48   1.360       .  A
C47        C2794   1.505       .  S
C49          N50   1.361   1_655  A
C49          N54   1.361       .  A
C49        C2689   1.486       .  S
N50          C51   1.356       .  A
C51          N52   1.352   1_455  A
C51        C2762   1.471       .  S
N52          C53   1.353       .  A
C53          N54   1.361       .  A
C53        C2730   1.477       .  S
C55          N56   1.359       .  A
C55          N60   1.358       .  A
C55        C2666   1.480       .  S
N56          C57   1.357       .  A
C57          N58   1.357       .  A
C57        C2634   1.479       .  S
N58          C59   1.356       .  A
C59          N60   1.360       .  A
C59        C2753   1.490       .  S
C61          N62   1.355       .  A
C61          N66   1.360       .  A
C61        C2538   1.487       .  S
N62          C63   1.356       .  A
C63          N64   1.361       .  A
C63        C2593   1.481       .  S
N64          C65   1.362       .  A
C65          N66   1.358       .  A
C65        C2570   1.488       .  S
C67          N68   1.359       .  A
C67          N72   1.354       .  A
C67        C2465   1.481       .  S
N68          C69   1.360       .  A
C69          N70   1.362       .  A
C69        C2506   1.481   1_545  S
N70          C71   1.363       .  A
C71          N72   1.354       .  A
C71        C2602   1.488       .  S
C73          N74   1.356       .  A
C73          N78   1.361       .  A
C73        C2401   1.478       .  S
N74          C75   1.354       .  A
C75          N76   1.355       .  A
C75        C2433   1.473       .  S
N76          C77   1.358       .  A
C77          N78   1.359       .  A
C77        C2369   1.484       .  S
C79          N80   1.355       .  A
C79          N84   1.359       .  A
C79        C2346   1.479       .  S
N80          C81   1.354       .  A
C81          N82   1.359       .  A
C81        C2442   1.483       .  S
N82          C83   1.361       .  A
C83          N84   1.359       .  A
C83        C2305   1.495   1_565  S
C85          N86   1.358       .  A
C85          N90   1.358       .  A
C85        C2241   1.480       .  S
N86          C87   1.356       .  A
C87          N88   1.360       .  A
C87        C2273   1.484       .  S
N88          C89   1.357       .  A
C89          N90   1.357       .  A
C89        C2209   1.480       .  S
C91          N92   1.361       .  A
C91          N96   1.359       .  A
C91        C2154   1.479       .  S
N92          C93   1.360       .  A
C93          N94   1.358       .  A
C93        C2186   1.487       .  S
N94          C95   1.356       .  A
C95          N96   1.357       .  A
C95        C2282   1.475       .  S
C97          N98   1.360       .  A
C97         N102   1.363       .  A
C97        C2081   1.493       .  S
N98          C99   1.358       .  A
C99         N100   1.352       .  A
C99        C2113   1.481       .  S
N100        C101   1.353       .  A
C101        N102   1.360       .  A
C101       C2058   1.471       .  S
C103        N104   1.356       .  A
C103        N108   1.358       .  A
C103       C1994   1.476       .  S
N104        C105   1.354       .  A
C105        N106   1.356       .  A
C105       C2122   1.475       .  S
N106        C107   1.356       .  A
C107        N108   1.359       .  A
C107       C2017   1.477       .  S
C109        N110   1.359       .  A
C109        N114   1.357       .  A
C109       C1889   1.480       .  S
N110        C111   1.358       .  A
C111        N112   1.357       .  A
C111       C1921   1.469       .  S
N112        C113   1.356       .  A
C113        N114   1.357       .  A
C113       C1953   1.481   1_545  S
C115        N116   1.355       .  A
C115        N120   1.361       .  A
C115       C1834   1.479       .  S
N116        C117   1.354       .  A
C117        N118   1.360       .  A
C117       C1962   1.487       .  S
N118        C119   1.359       .  A
C119        N120   1.362       .  A
C119       C1866   1.492       .  S
C121        N122   1.354       .  A
C121        N126   1.359       .  A
C121       C1729   1.473       .  S
N122        C123   1.354       .  A
C123        N124   1.360       .  A
C123       C1793   1.490       .  S
N124        C125   1.359       .  A
C125        N126   1.364       .  A
C125       C1761   1.504       .  S
C127        N128   1.359       .  A
C127        N132   1.359       .  A
C127       C1706   1.484       .  S
N128        C129   1.355       .  A
C129        N130   1.355       .  A
C129       C1802   1.472       .  S
N130        C131   1.355       .  A
C131        N132   1.360       .  A
C131       C1674   1.475       .  S
C133        N134   1.360       .  A
C133        N138   1.357       .  A
C133       C1569   1.475       .  S
N134        C135   1.360       .  A
C135        N136   1.356       .  A
C135       C1601   1.469       .  S
N136        C137   1.355       .  A
C137        N138   1.355       .  A
C137       C1633   1.467       .  S
C139        N140   1.355       .  A
C139        N144   1.357       .  A
C139       C1514   1.478       .  S
N140        C141   1.355       .  A
C141        N142   1.356       .  A
C141       C1546   1.469       .  S
N142        C143   1.361       .  A
C143        N144   1.356       .  A
C143       C1642   1.493   1_565  S
C145        N146   1.358       .  A
C145        N150   1.357       .  A
C145       C1441   1.482       .  S
N146        C147   1.355       .  A
C147        N148   1.357       .  A
C147       C1409   1.478       .  S
N148        C149   1.355       .  A
C149        N150   1.361       .  A
C149       C1473   1.503       .  S
C151        N152   1.357       .  A
C151        N156   1.365       .  A
C151       C1386   1.490       .  S
N152        C153   1.355       .  A
C153        N154   1.356       .  A
C153       C1482   1.473       .  S
N154        C155   1.362       .  A
C155        N156   1.364       .  A
C155       C1354   1.514   1_565  S
C157        N158   1.359       .  A
C157        N162   1.363       .  A
C157       C1281   1.486       .  S
N158        C159   1.358       .  A
C159        N160   1.355       .  A
C159       C1313   1.478       .  S
N160        C161   1.356       .  A
C161        N162   1.362       .  A
C161       C1249   1.474       .  S
C163        N164   1.363   1_565  A
C163        N168   1.360       .  A
C163       C1226   1.494       .  S
N164        C165   1.360       .  A
C165        N166   1.357   1_545  A
C165       C1322   1.486       .  S
N166        C167   1.355       .  A
C167        N168   1.359       .  A
C167       C1194   1.473       .  S
C169        N170   1.353       .  A
C169        N174   1.356       .  A
C169       C1089   1.469       .  S
N170        C171   1.352       .  A
C171        N172   1.356       .  A
C171       C1153   1.463       .  S
N172        C173   1.357       .  A
C173        N174   1.356       .  A
C173       C1130   1.474       .  S
C175        N176   1.356       .  A
C175        N180   1.354       .  A
C175       C1025   1.473       .  S
N176        C177   1.357       .  A
C177        N178   1.356       .  A
C177       C1057   1.470       .  S
N178        C179   1.355       .  A
C179        N180   1.355       .  A
C179       C1162   1.480       .  S
C181        N182   1.361       .  A
C181        N186   1.357       .  A
C181        C929   1.484       .  S
N182        C183   1.362       .  A
C183        N184   1.360       .  A
C183        C961   1.489       .  S
N184        C185   1.358       .  A
C185        N186   1.356       .  A
C185        C993   1.481       .  S
C187        N188   1.357       .  A
C187        N192   1.356   1_655  A
C187        C897   1.476       .  S
N188        C189   1.359       .  A
C189        N190   1.358       .  A
C189       C1002   1.487       .  S
N190        C191   1.360   1_655  A
C191        N192   1.357       .  A
C191        C874   1.478       .  S
C193        N194   1.359       .  A
C193        N198   1.361       .  A
C193        C801   1.494       .  S
N194        C195   1.356       .  A
C195        N196   1.357       .  A
C195        C842   1.481   1_556  S
N196        C197   1.359       .  A
C197        N198   1.361       .  A
C197        C769   1.483       .  S
C199        N200   1.358       .  A
C199        N204   1.358       .  A
C199        C714   1.474       .  S
N200        C201   1.362       .  A
C201        N202   1.358       .  A
C201        C833   1.500       .  S
N202        C203   1.358       .  A
C203        N204   1.358       .  A
C203        C737   1.480       .  S
C205        N206   1.359       .  A
C205        N210   1.360       .  A
C205        C618   1.481       .  S
N206        C207   1.359       .  A
C207        N208   1.361       .  A
C207        C673   1.501       .  S
N208        C209   1.362       .  A
C209        N210   1.361       .  A
C209        C641   1.501       .  S
C211        N212   1.362   1_655  A
C211        N216   1.366       .  A
C211        C545   1.496       .  S
N212        C213   1.357       .  A
C213        N214   1.356   1_455  A
C213        C682   1.478       .  S
N214        C215   1.359       .  A
C215        N216   1.365       .  A
C215        C586   1.494       .  S
O217       Zr253   2.436       .  S
O217        C228   1.293       .  A
O218       Zr252   2.455       .  S
O218        C229   1.295       .  A
O219       Zr225   2.432       .  S
O219        C230   1.291       .  A
O220       Zr225   2.466       .  S
O220        C231   1.297       .  A
O221       Zr255   2.435       .  S
O221        C231   1.291       .  A
O222       Zr254   2.456       .  S
O222        C230   1.295       .  A
O223       Zr225   2.424       .  S
O223        C229   1.288       .  A
O224       Zr225   2.438       .  S
O224        C228   1.290       .  A
Zr225       O226   2.341       .  S
Zr225       O227   2.341       .  S
Zr225       O235   2.333       .  S
Zr225       O233   2.347       .  S
O226       Zr252   2.333       .  S
O226       Zr255   2.344       .  S
O227       Zr253   2.337       .  S
O227       Zr254   2.344       .  S
C228       C3370   1.492       .  S
C229       C2378   1.479       .  S
C230       C2145   1.484       .  S
C231        C577   1.487       .  S
H232        O233   0.965       .  S
O233       Zr252   2.340       .  S
O233       Zr254   2.340       .  S
H234        O235   0.965       .  S
O235       Zr253   2.346       .  S
O235       Zr255   2.348       .  S
O236       Zr252   2.422       .  S
O236        C259   1.291       .  A
O237       Zr253   2.442       .  S
O237        C260   1.292       .  A
O238       Zr254   2.473       .  S
O238        C261   1.299       .  A
O239       Zr255   2.437       .  S
O239        C262   1.290       .  A
O240       Zr255   2.438       .  S
O240        C263   1.290       .  A
O241       Zr254   2.455       .  S
O241        C264   1.297       .  A
O242       Zr256   2.473       .  S
O242        C265   1.298       .  A
O243       Zr256   2.431       .  S
O243        C266   1.289       .  A
O244       Zr254   2.440       .  S
O244        C265   1.293       .  A
O245       Zr255   2.447       .  S
O245        C266   1.295       .  A
O246       Zr252   2.419       .  S
O246        C261   1.288       .  A
O247       Zr253   2.448       .  S
O247        C264   1.292       .  A
O248       Zr253   2.438       .  S
O248        C263   1.294       .  A
O249       Zr252   2.451       .  S
O249        C262   1.294       .  A
O250       Zr256   2.452       .  S
O250        C259   1.294       .  A
O251       Zr256   2.436       .  S
O251        C260   1.291       .  A
Zr252       O258   2.358       .  S
Zr252       O270   2.338       .  S
Zr253       O257   2.337       .  S
Zr253       O268   2.334       .  S
Zr254       O258   2.348       .  S
Zr254       O268   2.346       .  S
Zr255       O257   2.339       .  S
Zr255       O270   2.333       .  S
Zr256       O257   2.349       .  S
Zr256       O258   2.345       .  S
Zr256       O270   2.344       .  S
Zr256       O268   2.333       .  S
C259       C2858   1.490       .  S
C260       C2314   1.474       .  S
C261       C3114   1.482       .  S
C262        C810   1.488       .  S
C263       C3210   1.488       .  S
C264       C1290   1.503       .  S
C265        C650   1.493       .  S
C266       C1898   1.487       .  S
H267        O268   0.964       .  S
H269        O270   0.965       .  S
O271       Zr307   2.447   1_556  S
O271        C282   1.294       .  A
O272       Zr306   2.450       .  S
O272        C283   1.295       .  A
O273       Zr279   2.462       .  S
O273        C284   1.297       .  A
O274       Zr279   2.435   1_556  S
O274        C285   1.290   1_565  A
O275       Zr309   2.458   1_556  S
O275        C285   1.296   1_455  A
O276       Zr308   2.432       .  S
O276        C284   1.289       .  A
O277       Zr279   2.424   1_545  S
O277        C283   1.287       .  A
O278       Zr279   2.434   1_556  S
O278        C282   1.290       .  A
Zr279       O280   2.342   1_565  S
Zr279       O281   2.331       .  S
Zr279       O289   2.347   1_554  S
Zr279       O287   2.340       .  S
O280       Zr306   2.333       .  S
O280       Zr309   2.332   1_655  S
O281       Zr307   2.344       .  S
O281       Zr308   2.336       .  S
C282       C3137   1.482       .  S
C283        C778   1.491       .  S
C284       C1825   1.496       .  S
C285        C554   1.488       .  S
H286        O287   0.965       .  S
O287       Zr306   2.335   1_565  S
O287       Zr308   2.345       .  S
H288        O289   0.965       .  S
O289       Zr307   2.346   1_556  S
O289       Zr309   2.339   1_666  S
O290       Zr306   2.422   1_455  S
O290        C313   1.287       .  A
O291       Zr307   2.464   1_455  S
O291        C314   1.298       .  A
O292       Zr308   2.440       .  S
O292        C315   1.293       .  A
O293       Zr309   2.441       .  S
O293        C316   1.292       .  A
O294       Zr309   2.431   1_566  S
O294        C317   1.291       .  A
O295       Zr308   2.436       .  S
O295        C318   1.292       .  A
O296       Zr310   2.443       .  S
O296        C319   1.292   1_455  A
O297       Zr310   2.444       .  S
O297        C320   1.292   1_565  A
O298       Zr308   2.443       .  S
O298        C319   1.293       .  A
O299       Zr309   2.430       .  S
O299        C320   1.292       .  A
O300       Zr306   2.437   1_565  S
O300        C315   1.290       .  A
O301       Zr307   2.432       .  S
O301        C318   1.290       .  A
O302       Zr307   2.446   1_456  S
O302        C317   1.292       .  A
O303       Zr306   2.430   1_455  S
O303        C316   1.290       .  A
O304       Zr310   2.459       .  S
O304        C313   1.297   1_565  A
O305       Zr310   2.447       .  S
O305        C314   1.293       .  A
Zr306       O312   2.343   1_545  S
Zr306       O324   2.343   1_655  S
Zr307       O311   2.333   1_655  S
Zr307       O322   2.347       .  S
Zr308       O312   2.336       .  S
Zr308       O322   2.345       .  S
Zr309       O311   2.345   1_545  S
Zr309       O324   2.342       .  S
Zr310       O311   2.343       .  S
Zr310       O312   2.342   1_455  S
Zr310       O324   2.340   1_565  S
Zr310       O322   2.349   1_455  S
C313       C2529   1.489       .  S
C314        C746   1.496       .  S
C315       C1505   1.492       .  S
C316       C2785   1.468       .  S
C317       C2337   1.481       .  S
C318       C2890   1.474       .  S
C319        C906   1.479       .  S
C320       C1930   1.490       .  S
H321        O322   0.966       .  S
H323        O324   0.965       .  S
O325       Zr361   2.438       .  S
O325        C336   1.291       .  A
O326       Zr360   2.464       .  S
O326        C337   1.296       .  A
O327       Zr333   2.420       .  S
O327        C338   1.290       .  A
O328       Zr333   2.442       .  S
O328        C339   1.294       .  A
O329       Zr363   2.424       .  S
O329        C339   1.288       .  A
O330       Zr362   2.426       .  S
O330        C338   1.289       .  A
O331       Zr333   2.433       .  S
O331        C337   1.290       .  A
O332       Zr333   2.426       .  S
O332        C336   1.289       .  A
Zr333       O334   2.332       .  S
Zr333       O335   2.332       .  S
Zr333       O343   2.337       .  S
Zr333       O341   2.341       .  S
O334       Zr360   2.332       .  S
O334       Zr363   2.355       .  S
O335       Zr361   2.321       .  S
O335       Zr362   2.329       .  S
C336       C3050   1.470       .  S
C337       C1345   1.481       .  S
C338       C1098   1.478       .  S
C339       C1665   1.485       .  S
H340        O341   0.965       .  S
O341       Zr360   2.335       .  S
O341       Zr362   2.345       .  S
H342        O343   0.965       .  S
O343       Zr361   2.340       .  S
O343       Zr363   2.347       .  S
O344       Zr360   2.422       .  S
O344        C367   1.290       .  A
O345       Zr361   2.426       .  S
O345        C368   1.288       .  A
O346       Zr362   2.441       .  S
O346        C369   1.292       .  A
O347       Zr363   2.429       .  S
O347        C370   1.292       .  A
O348       Zr363   2.453       .  S
O348        C371   1.295       .  A
O349       Zr362   2.440       .  S
O349        C372   1.294       .  A
O350       Zr364   2.442       .  S
O350        C373   1.292       .  A
O351       Zr364   2.422       .  S
O351        C374   1.287       .  A
O352       Zr362   2.442       .  S
O352        C373   1.292       .  A
O353       Zr363   2.465       .  S
O353        C374   1.297       .  A
O354       Zr360   2.432       .  S
O354        C369   1.292       .  A
O355       Zr361   2.431       .  S
O355        C372   1.289       .  A
O356       Zr361   2.425       .  S
O356        C371   1.288       .  A
O357       Zr360   2.443       .  S
O357        C370   1.292       .  A
O358       Zr364   2.450       .  S
O358        C367   1.294       .  A
O359       Zr364   2.435       .  S
O359        C368   1.293       .  A
Zr360       O366   2.348       .  S
Zr360       O378   2.351       .  S
Zr361       O365   2.341       .  S
Zr361       O376   2.337       .  S
Zr362       O366   2.334       .  S
Zr362       O376   2.331       .  S
Zr363       O365   2.333       .  S
Zr363       O378   2.339       .  S
Zr364       O365   2.345       .  S
Zr364       O366   2.334       .  S
Zr364       O378   2.340       .  S
Zr364       O376   2.339       .  S
C367       C2474   1.478       .  S
C368       C1418   1.482       .  S
C369       C2625   1.480       .  S
C370       C1578   1.484       .  S
C371       C2721   1.485       .  S
C372       C2090   1.487       .  S
C373       C1770   1.473       .  S
C374        C938   1.483       .  S
H375        O376   0.964       .  S
H377        O378   0.965       .  S
O379       Zr415   2.439       .  S
O379        C390   1.293       .  A
O380       Zr414   2.436       .  S
O380        C391   1.292       .  A
O381       Zr387   2.446       .  S
O381        C392   1.295       .  A
O382       Zr387   2.444       .  S
O382        C393   1.292       .  A
O383       Zr417   2.440       .  S
O383        C393   1.293       .  A
O384       Zr416   2.440       .  S
O384        C392   1.290       .  A
O385       Zr387   2.424       .  S
O385        C391   1.289       .  A
O386       Zr387   2.436       .  S
O386        C390   1.290       .  A
Zr387       O388   2.344       .  S
Zr387       O389   2.336       .  S
Zr387       O397   2.337       .  S
Zr387       O395   2.344       .  S
O388       Zr414   2.345       .  S
O388       Zr417   2.338       .  S
O389       Zr415   2.330       .  S
O389       Zr416   2.351       .  S
C390       C3338   1.488       .  S
C391       C2410   1.467       .  S
C392       C1185   1.502       .  S
C393       C3178   1.484       .  S
H394        O395   0.965       .  S
O395       Zr414   2.345       .  S
O395       Zr416   2.342       .  S
H396        O397   0.966       .  S
O397       Zr415   2.336       .  S
O397       Zr417   2.340       .  S
O398       Zr414   2.449       .  S
O398        C421   1.294       .  A
O399       Zr415   2.418       .  S
O399        C422   1.286       .  A
O400       Zr416   2.459       .  S
O400        C423   1.296       .  A
O401       Zr417   2.436       .  S
O401        C424   1.293       .  A
O402       Zr417   2.438       .  S
O402        C425   1.290       .  A
O403       Zr416   2.426       .  S
O403        C426   1.289       .  A
O404       Zr418   2.410       .  S
O404        C427   1.285       .  A
O405       Zr418   2.437       .  S
O405        C428   1.293       .  A
O406       Zr416   2.472       .  S
O406        C427   1.299       .  A
O407       Zr417   2.428       .  S
O407        C428   1.289       .  A
O408       Zr414   2.434       .  S
O408        C423   1.291       .  A
O409       Zr415   2.441       .  S
O409        C426   1.293       .  A
O410       Zr415   2.426       .  S
O410        C425   1.291       .  A
O411       Zr414   2.452       .  S
O411        C424   1.294       .  A
O412       Zr418   2.427       .  S
O412        C421   1.289       .  A
O413       Zr418   2.432       .  S
O413        C422   1.291       .  A
Zr414       O420   2.342       .  S
Zr414       O432   2.334       .  S
Zr415       O419   2.339       .  S
Zr415       O430   2.335       .  S
Zr416       O420   2.336       .  S
Zr416       O430   2.338       .  S
Zr417       O419   2.334       .  S
Zr417       O432   2.342       .  S
Zr418       O419   2.325       .  S
Zr418       O420   2.343       .  S
Zr418       O432   2.333       .  S
Zr418       O430   2.334       .  S
C421       C3265   1.478       .  S
C422       C1985   1.477       .  S
C423       C2177   1.480       .  S
C424        C609   1.490       .  S
C425       C2218   1.482       .  S
C426       C1034   1.480       .  S
C427       C2945   1.483       .  S
C428       C1258   1.483       .  S
H429        O430   0.965       .  S
H431        O432   0.965       .  S
O433       Zr469   2.445       .  S
O433        C444   1.292       .  A
O434       Zr468   2.455       .  S
O434        C445   1.297       .  A
O435       Zr441   2.432       .  S
O435        C446   1.290       .  A
O436       Zr441   2.453       .  S
O436        C447   1.295       .  A
O437       Zr471   2.436       .  S
O437        C447   1.290       .  A
O438       Zr470   2.443       .  S
O438        C446   1.292       .  A
O439       Zr441   2.413       .  S
O439        C445   1.284       .  A
O440       Zr441   2.420       .  S
O440        C444   1.290       .  A
Zr441       O442   2.324       .  S
Zr441       O443   2.339       .  S
Zr441       O451   2.335       .  S
Zr441       O449   2.341       .  S
O442       Zr468   2.333       .  S
O442       Zr471   2.342       .  S
O443       Zr469   2.342       .  S
O443       Zr470   2.339       .  S
C444       C2826   1.486       .  S
C445       C1537   1.499       .  S
C446       C1857   1.471       .  S
C447        C970   1.486       .  S
H448        O449   0.966       .  S
O449       Zr468   2.344       .  S
O449       Zr470   2.342       .  S
H450        O451   0.965       .  S
O451       Zr469   2.352       .  S
O451       Zr471   2.335       .  S
O452       Zr468   2.443       .  S
O452        C475   1.293       .  A
O453       Zr469   2.457       .  S
O453        C476   1.297       .  A
O454       Zr470   2.446       .  S
O454        C477   1.295       .  A
O455       Zr471   2.409       .  S
O455        C478   1.288       .  A
O456       Zr471   2.461       .  S
O456        C479   1.295       .  A
O457       Zr470   2.435       .  S
O457        C480   1.289       .  A
O458       Zr472   2.429       .  S
O458        C481   1.291       .  A
O459       Zr472   2.414       .  S
O459        C482   1.286       .  A
O460       Zr470   2.445       .  S
O460        C481   1.292       .  A
O461       Zr471   2.447       .  S
O461        C482   1.294       .  A
O462       Zr468   2.448       .  S
O462        C477   1.292       .  A
O463       Zr469   2.450       .  S
O463        C480   1.296       .  A
O464       Zr469   2.432       .  S
O464        C479   1.292       .  A
O465       Zr468   2.456       .  S
O465        C478   1.295       .  A
O466       Zr472   2.427       .  S
O466        C475   1.288       .  A
O467       Zr472   2.421       .  S
O467        C476   1.285       .  A
Zr468       O474   2.343       .  S
Zr468       O486   2.343       .  S
Zr469       O473   2.336       .  S
Zr469       O484   2.342       .  S
Zr470       O474   2.337       .  S
Zr470       O484   2.345       .  S
Zr471       O473   2.330       .  S
Zr471       O486   2.348       .  S
Zr472       O473   2.341       .  S
Zr472       O474   2.328       .  S
Zr472       O486   2.329       .  S
Zr472       O484   2.334       .  S
C475       C2657   1.482       .  S
C476       C1610   1.503       .  S
C477       C2497   1.502       .  S
C478       C1450   1.470       .  S
C479       C2561   1.496       .  S
C480        C705   1.497       .  S
C481        C865   1.483       .  S
C482       C1697   1.474       .  S
H483        O484   0.966       .  S
H485        O486   0.965       .  S
O487       Zr523   2.426       .  S
O487        C498   1.290   1_455  A
O488       Zr522   2.434       .  S
O488        C499   1.293       .  A
O489       Zr495   2.454       .  S
O489        C500   1.294   1_565  A
O490       Zr495   2.431       .  S
O490        C501   1.290       .  A
O491       Zr525   2.458       .  S
O491        C501   1.296       .  A
O492       Zr524   2.439       .  S
O492        C500   1.293       .  A
O493       Zr495   2.429       .  S
O493        C499   1.290       .  A
O494       Zr495   2.487       .  S
O494        C498   1.300   1_565  A
Zr495       O496   2.352       .  S
Zr495       O497   2.336   1_565  S
Zr495       O505   2.337       .  S
Zr495       O503   2.354       .  S
O496       Zr522   2.342       .  S
O496       Zr525   2.324       .  S
O497       Zr523   2.347   1_655  S
O497       Zr524   2.355       .  S
C498       C3306   1.503       .  S
C499       C2026   1.476       .  S
C500       C1121   1.496       .  S
C501       C2250   1.484       .  S
H502        O503   0.965       .  S
O503       Zr522   2.341       .  S
O503       Zr524   2.348   1_565  S
H504        O505   0.966       .  S
O505       Zr523   2.336   1_665  S
O505       Zr525   2.342       .  S
O506       Zr522   2.433       .  S
O506        C529   1.290       .  A
O507       Zr523   2.430       .  S
O507        C530   1.291       .  A
O508       Zr524   2.445   1_565  S
O508        C531   1.291       .  A
O509       Zr525   2.458       .  S
O509        C532   1.294       .  A
O510       Zr525   2.435   1_455  S
O510        C533   1.290       .  A
O511       Zr524   2.442   1_455  S
O511        C534   1.292       .  A
O512       Zr526   2.423       .  S
O512        C535   1.286   1_565  A
O513       Zr526   2.437       .  S
O513        C536   1.291       .  A
O514       Zr524   2.469   1_455  S
O514        C535   1.299       .  A
O515       Zr525   2.421   1_455  S
O515        C536   1.290       .  A
O516       Zr522   2.452       .  S
O516        C531   1.296       .  A
O517       Zr523   2.424       .  S
O517        C534   1.290       .  A
O518       Zr523   2.447   1_565  S
O518        C533   1.294       .  A
O519       Zr522   2.449       .  S
O519        C532   1.294       .  A
O520       Zr526   2.451       .  S
O520        C529   1.294   1_455  A
O521       Zr526   2.447   1_545  S
O521        C530   1.293       .  A
Zr522       O528   2.341       .  S
Zr522       O540   2.342       .  S
Zr523       O527   2.326   1_545  S
Zr523       O538   2.344       .  S
Zr524       O528   2.338   1_545  S
Zr524       O538   2.342   1_655  S
Zr525       O527   2.340   1_655  S
Zr525       O540   2.344       .  S
Zr526       O527   2.331       .  S
Zr526       O528   2.337   1_455  S
Zr526       O540   2.341   1_455  S
Zr526       O538   2.341   1_565  S
C529       C2698   1.473       .  S
C530       C2049   1.489       .  S
C531       C1377   1.503       .  S
C532       C3018   1.508       .  S
C533       C1217   1.487       .  S
C534       C2977   1.478       .  S
C535       C1738   1.505       .  S
C536       C1066   1.477       .  S
H537        O538   0.966       .  S
H539        O540   0.964       .  S
C541        C542   1.403       .  A
C541        C546   1.414       .  A
C541        H551   1.083       .  S
C542        C547   1.490       .  S
C542        C543   1.414   1_655  A
C543        C544   1.407       .  A
C543        C548   1.521       .  S
C544        C545   1.408   1_455  A
C544        H549   1.083       .  S
C545        C546   1.424       .  A
C546        C550   1.519       .  S
C547        C552   1.415   1_655  A
C547        C556   1.402       .  A
C548        F564   1.382       .  S
C548        F565   1.383       .  S
C548        F566   1.384       .  S
C550        F561   1.385       .  S
C550        F562   1.380       .  S
C550        F563   1.383       .  S
C552        C553   1.409       .  A
C552        C557   1.519       .  S
C553        C554   1.405   1_455  A
C553        H558   1.080       .  S
C554        C555   1.422       .  A
C555        C556   1.410       .  A
C555        C559   1.521   1_545  S
C556        H560   1.083       .  S
C557        F570   1.383       .  S
C557        F571   1.382       .  S
C557        F572   1.382       .  S
C559        F567   1.382       .  S
C559        F568   1.384       .  S
C559        F569   1.385       .  S
C573        C574   1.397       .  A
C573        C578   1.402       .  A
C573        H583   1.084       .  S
C574        C579   1.491       .  S
C574        C575   1.418       .  A
C575        C576   1.416       .  A
C575        C580   1.516       .  S
C576        C577   1.405       .  A
C576        H581   1.083       .  S
C577        C578   1.420       .  A
C578        C582   1.515       .  S
C579        C584   1.416       .  A
C579        C588   1.403       .  A
C580        F596   1.382       .  S
C580        F597   1.382       .  S
C580        F598   1.385       .  S
C582        F593   1.385       .  S
C582        F594   1.381       .  S
C582        F595   1.383       .  S
C584        C585   1.408       .  A
C584        C589   1.522       .  S
C585        C586   1.408       .  A
C585        H590   1.083       .  S
C586        C587   1.421       .  A
C587        C588   1.413       .  A
C587        C591   1.517       .  S
C588        H592   1.083       .  S
C589        F602   1.385       .  S
C589        F603   1.382       .  S
C589        F604   1.382       .  S
C591        F599   1.385       .  S
C591        F600   1.380       .  S
C591        F601   1.384       .  S
C605        C606   1.404       .  A
C605        C610   1.411       .  A
C605        H615   1.083       .  S
C606        C611   1.490       .  S
C606        C607   1.415       .  A
C607        C608   1.407       .  A
C607        C612   1.520       .  S
C608        C609   1.408       .  A
C608        H613   1.083       .  S
C609        C610   1.421       .  A
C610        C614   1.519       .  S
C611        C616   1.419       .  A
C611        C620   1.403       .  A
C612        F628   1.381       .  S
C612        F629   1.381       .  S
C612        F630   1.385       .  S
C614        F625   1.384       .  S
C614        F626   1.383       .  S
C614        F627   1.382       .  S
C616        C617   1.411       .  A
C616        C621   1.521       .  S
C617        C618   1.403       .  A
C617        H622   1.083       .  S
C618        C619   1.415       .  A
C619        C620   1.409       .  A
C619        C623   1.517       .  S
C620        H624   1.083       .  S
C621        F634   1.384       .  S
C621        F635   1.382       .  S
C621        F636   1.382       .  S
C623        F631   1.382       .  S
C623        F632   1.383       .  S
C623        F633   1.384       .  S
C637        C638   1.402       .  A
C637        C642   1.412       .  A
C637        H647   1.083       .  S
C638        C643   1.491       .  S
C638        C639   1.414       .  A
C639        C640   1.409       .  A
C639        C644   1.521       .  S
C640        C641   1.411       .  A
C640        H645   1.082       .  S
C641        C642   1.426       .  A
C642        C646   1.520       .  S
C643        C648   1.415       .  A
C643        C652   1.404       .  A
C644        F660   1.382       .  S
C644        F661   1.382       .  S
C644        F662   1.384       .  S
C646        F657   1.383       .  S
C646        F658   1.385       .  S
C646        F659   1.383       .  S
C648        C649   1.408       .  A
C648        C653   1.520       .  S
C649        C650   1.408       .  A
C649        H654   1.083       .  S
C650        C651   1.418       .  A
C651        C652   1.412       .  A
C651        C655   1.511       .  S
C652        H656   1.083       .  S
C653        F666   1.382       .  S
C653        F667   1.382       .  S
C653        F668   1.382       .  S
C655        F663   1.385       .  S
C655        F664   1.382       .  S
C655        F665   1.382       .  S
C669        C670   1.402       .  A
C669        C674   1.412       .  A
C669        H679   1.083       .  S
C670        C675   1.492       .  S
C670        C671   1.415       .  A
C671        C672   1.408       .  A
C671        C676   1.521       .  S
C672        C673   1.410       .  A
C672        H677   1.082       .  S
C673        C674   1.427       .  A
C674        C678   1.521       .  S
C675        C680   1.419       .  A
C675        C684   1.404       .  A
C676        F692   1.381       .  S
C676        F693   1.382       .  S
C676        F694   1.384       .  S
C678        F689   1.385       .  S
C678        F690   1.382       .  S
C678        F691   1.384       .  S
C680        C681   1.410       .  A
C680        C685   1.519       .  S
C681        C682   1.402       .  A
C681        H686   1.083       .  S
C682        C683   1.414       .  A
C683        C684   1.407       .  A
C683        C687   1.518       .  S
C684        H688   1.083       .  S
C685        F698   1.385       .  S
C685        F699   1.381       .  S
C685        F700   1.382       .  S
C687        F695   1.382       .  S
C687        F696   1.384       .  S
C687        F697   1.385       .  S
C701        C702   1.398       .  A
C701        C706   1.407       .  A
C701        H711   1.083       .  S
C702        C707   1.484       .  S
C702        C703   1.413       .  A
C703        C704   1.407       .  A
C703        C708   1.520       .  S
C704        C705   1.410       .  A
C704        H709   1.081       .  S
C705        C706   1.429       .  A
C706        C710   1.522       .  S
C707        C712   1.416       .  A
C707        C716   1.404       .  A
C708        F724   1.382       .  S
C708        F725   1.381       .  S
C708        F726   1.383       .  S
C710        F721   1.385       .  S
C710        F722   1.383       .  S
C710        F723   1.383       .  S
C712        C713   1.407       .  A
C712        C717   1.520       .  S
C713        C714   1.402       .  A
C713        H718   1.083       .  S
C714        C715   1.413       .  A
C715        C716   1.408       .  A
C715        C719   1.516       .  S
C716        H720   1.083       .  S
C717        F730   1.384       .  S
C717        F731   1.382       .  S
C717        F732   1.382       .  S
C719        F727   1.385       .  S
C719        F728   1.383       .  S
C719        F729   1.383       .  S
C733        C734   1.403       .  A
C733        C738   1.408       .  A
C733        H743   1.083       .  S
C734        C739   1.489       .  S
C734        C735   1.416       .  A
C735        C736   1.410       .  A
C735        C740   1.516       .  S
C736        C737   1.404       .  A
C736        H741   1.083       .  S
C737        C738   1.417       .  A
C738        C742   1.519       .  S
C739        C744   1.418       .  A
C739        C748   1.403       .  A
C740        F756   1.383       .  S
C740        F757   1.383       .  S
C740        F758   1.385       .  S
C742        F753   1.384       .  S
C742        F754   1.384       .  S
C742        F755   1.382       .  S
C744        C745   1.406       .  A
C744        C749   1.519       .  S
C745        C746   1.404       .  A
C745        H750   1.082   1_455  S
C746        C747   1.423       .  A
C747        C748   1.412       .  A
C747        C751   1.516       .  S
C748        H752   1.084       .  S
C749        F762   1.384   1_455  S
C749        F763   1.382   1_455  S
C749        F764   1.381       .  S
C751        F759   1.386       .  S
C751        F760   1.381       .  S
C751        F761   1.383       .  S
C765        C766   1.400       .  A
C765        C770   1.407       .  A
C765        H775   1.083       .  S
C766        C771   1.486       .  S
C766        C767   1.417   1_554  A
C767        C768   1.410       .  A
C767        C772   1.521       .  S
C768        C769   1.405       .  A
C768        H773   1.083       .  S
C769        C770   1.419   1_556  A
C770        C774   1.518       .  S
C771        C776   1.414       .  A
C771        C780   1.401       .  A
C772        F788   1.382       .  S
C772        F789   1.383       .  S
C772        F790   1.384       .  S
C774        F785   1.382       .  S
C774        F786   1.385       .  S
C774        F787   1.383       .  S
C776        C777   1.405       .  A
C776        C781   1.520       .  S
C777        C778   1.407       .  A
C777        H782   1.082       .  S
C778        C779   1.425       .  A
C779        C780   1.410       .  A
C779        C783   1.522       .  S
C780        H784   1.083       .  S
C781        F794   1.384       .  S
C781        F795   1.382       .  S
C781        F796   1.382       .  S
C783        F791   1.385       .  S
C783        F792   1.384   1_545  S
C783        F793   1.383   1_544  S
C797        C798   1.401       .  A
C797        C802   1.410       .  A
C797        H807   1.083       .  S
C798        C803   1.486       .  S
C798        C799   1.413       .  A
C799        C800   1.407       .  A
C799        C804   1.521       .  S
C800        C801   1.410       .  A
C800        H805   1.083       .  S
C801        C802   1.424       .  A
C802        C806   1.520       .  S
C803        C808   1.416       .  A
C803        C812   1.399       .  A
C804        F820   1.382       .  S
C804        F821   1.382       .  S
C804        F822   1.384       .  S
C806        F817   1.385       .  S
C806        F818   1.383       .  S
C806        F819   1.383       .  S
C808        C809   1.410       .  A
C808        C813   1.520       .  S
C809        C810   1.406       .  A
C809        H814   1.083       .  S
C810        C811   1.423       .  A
C811        C812   1.406       .  A
C811        C815   1.520       .  S
C812        H816   1.083       .  S
C813        F826   1.384       .  S
C813        F827   1.383       .  S
C813        F828   1.382       .  S
C815        F823   1.382       .  S
C815        F824   1.382       .  S
C815        F825   1.385       .  S
C829        C830   1.400   1_455  A
C829        C834   1.411       .  A
C829        H839   1.083       .  S
C830        C835   1.486       .  S
C830        C831   1.413   1_655  A
C831        C832   1.406       .  A
C831        C836   1.521   1_455  S
C832        C833   1.410       .  A
C832        H837   1.082       .  S
C833        C834   1.429       .  A
C834        C838   1.522       .  S
C835        C840   1.416       .  A
C835        C844   1.401       .  A
C836        F852   1.382   1_655  S
C836        F853   1.382       .  S
C836        F854   1.384   1_655  S
C838        F849   1.383       .  S
C838        F850   1.385   1_554  S
C838        F851   1.384       .  S
C840        C841   1.408       .  A
C840        C845   1.519       .  S
C841        C842   1.405       .  A
C841        H846   1.083       .  S
C842        C843   1.418       .  A
C843        C844   1.406       .  A
C843        C847   1.518       .  S
C844        H848   1.083   1_655  S
C845        F858   1.385       .  S
C845        F859   1.382       .  S
C845        F860   1.382       .  S
C847        F855   1.385   1_655  S
C847        F856   1.383   1_554  S
C847        F857   1.383       .  S
C861        C862   1.400       .  A
C861        C866   1.409       .  A
C861        H871   1.083       .  S
C862        C867   1.478       .  S
C862        C863   1.413       .  A
C863        C864   1.401       .  A
C863        C868   1.521       .  S
C864        C865   1.405       .  A
C864        H869   1.083       .  S
C865        C866   1.420       .  A
C866        C870   1.515       .  S
C867        C872   1.413       .  A
C867        C876   1.399       .  A
C868        F884   1.382       .  S
C868        F885   1.382       .  S
C868        F886   1.385       .  S
C870        F881   1.384       .  S
C870        F882   1.382       .  S
C870        F883   1.382       .  S
C872        C873   1.407       .  A
C872        C877   1.519       .  S
C873        C874   1.405       .  A
C873        H878   1.083       .  S
C874        C875   1.420       .  A
C875        C876   1.403       .  A
C875        C879   1.519       .  S
C876        H880   1.084       .  S
C877        F890   1.385       .  S
C877        F891   1.382       .  S
C877        F892   1.382       .  S
C879        F887   1.382       .  S
C879        F888   1.383       .  S
C879        F889   1.385       .  S
C893        C894   1.402   1_455  A
C893        C898   1.406       .  A
C893        H903   1.083       .  S
C894        C899   1.485       .  S
C894        C895   1.416       .  A
C895        C896   1.407       .  A
C895        C900   1.518       .  S
C896        C897   1.403       .  A
C896        H901   1.083       .  S
C897        C898   1.416   1_655  A
C898        C902   1.518       .  S
C899        C904   1.418       .  A
C899        C908   1.401       .  A
C900        F916   1.382       .  S
C900        F917   1.382       .  S
C900        F918   1.385       .  S
C902        F913   1.383       .  S
C902        F914   1.385       .  S
C902        F915   1.382       .  S
C904        C905   1.407       .  A
C904        C909   1.520       .  S
C905        C906   1.403       .  A
C905        H910   1.084       .  S
C906        C907   1.419       .  A
C907        C908   1.407       .  A
C907        C911   1.519   1_655  S
C908        H912   1.083   1_655  S
C909        F922   1.384       .  S
C909        F923   1.382       .  S
C909        F924   1.382       .  S
C911        F919   1.385       .  S
C911        F920   1.382       .  S
C911        F921   1.383   1_455  S
C925        C926   1.400       .  A
C925        C930   1.405       .  A
C925        H935   1.084       .  S
C926        C931   1.485       .  S
C926        C927   1.417       .  A
C927        C928   1.410       .  A
C927        C932   1.520       .  S
C928        C929   1.406       .  A
C928        H933   1.083       .  S
C929        C930   1.421       .  A
C930        C934   1.520       .  S
C931        C936   1.417       .  A
C931        C940   1.400       .  A
C932        F948   1.382       .  S
C932        F949   1.381       .  S
C932        F950   1.385       .  S
C934        F945   1.382       .  S
C934        F946   1.385       .  S
C934        F947   1.384       .  S
C936        C937   1.409       .  A
C936        C941   1.520       .  S
C937        C938   1.404       .  A
C937        H942   1.083       .  S
C938        C939   1.422       .  A
C939        C940   1.406       .  A
C939        C943   1.521       .  S
C940        H944   1.083       .  S
C941        F954   1.384       .  S
C941        F955   1.382       .  S
C941        F956   1.381       .  S
C943        F951   1.385       .  S
C943        F952   1.383       .  S
C943        F953   1.381       .  S
C957        C958   1.401       .  A
C957        C962   1.409       .  A
C957        H967   1.083       .  S
C958        C963   1.490       .  S
C958        C959   1.416       .  A
C959        C960   1.408       .  A
C959        C964   1.518       .  S
C960        C961   1.406       .  A
C960        H965   1.083       .  S
C961        C962   1.422       .  A
C962        C966   1.519       .  S
C963        C968   1.417       .  A
C963        C972   1.403       .  A
C964        F980   1.383       .  S
C964        F981   1.382       .  S
C964        F982   1.385       .  S
C966        F977   1.382       .  S
C966        F978   1.385       .  S
C966        F979   1.384       .  S
C968        C969   1.407       .  A
C968        C973   1.520       .  S
C969        C970   1.405       .  A
C969        H974   1.083       .  S
C970        C971   1.418       .  A
C971        C972   1.410       .  A
C971        C975   1.516       .  S
C972        H976   1.083       .  S
C973        F986   1.385       .  S
C973        F987   1.382       .  S
C973        F988   1.383       .  S
C975        F983   1.383       .  S
C975        F984   1.382       .  S
C975        F985   1.384       .  S
C989        C990   1.401       .  A
C989        C994   1.408       .  A
C989        H999   1.083       .  S
C990        C995   1.484       .  S
C990        C991   1.415       .  A
C991        C992   1.407       .  A
C991        C996   1.520       .  S
C992        C993   1.405       .  A
C992        H997   1.083       .  S
C993        C994   1.419       .  A
C994        C998   1.519       .  S
C995       C1000   1.414       .  A
C995       C1004   1.401       .  A
C996       F1012   1.382       .  S
C996       F1013   1.382       .  S
C996       F1014   1.384       .  S
C998       F1009   1.382       .  S
C998       F1010   1.385       .  S
C998       F1011   1.384       .  S
C1000      C1001   1.405       .  A
C1000      C1005   1.520       .  S
C1001      C1002   1.407       .  A
C1001      H1006   1.083       .  S
C1002      C1003   1.422       .  A
C1003      C1004   1.409       .  A
C1003      C1007   1.519       .  S
C1004      H1008   1.083       .  S
C1005      F1018   1.385       .  S
C1005      F1019   1.382       .  S
C1005      F1020   1.381       .  S
C1007      F1015   1.385       .  S
C1007      F1016   1.384       .  S
C1007      F1017   1.382       .  S
C1021      C1022   1.402       .  A
C1021      C1026   1.404       .  A
C1021      H1031   1.084       .  S
C1022      C1027   1.475       .  S
C1022      C1023   1.414       .  A
C1023      C1024   1.402       .  A
C1023      C1028   1.521       .  S
C1024      C1025   1.404       .  A
C1024      H1029   1.083       .  S
C1025      C1026   1.418       .  A
C1026      C1030   1.520       .  S
C1027      C1032   1.414       .  A
C1027      C1036   1.398       .  A
C1028      F1044   1.381       .  S
C1028      F1045   1.381       .  S
C1028      F1046   1.385       .  S
C1030      F1041   1.385       .  S
C1030      F1042   1.382       .  S
C1030      F1043   1.384       .  S
C1032      C1033   1.405       .  A
C1032      C1037   1.520       .  S
C1033      C1034   1.406       .  A
C1033      H1038   1.083       .  S
C1034      C1035   1.422       .  A
C1035      C1036   1.401       .  A
C1035      C1039   1.520       .  S
C1036      H1040   1.084       .  S
C1037      F1050   1.384       .  S
C1037      F1051   1.382       .  S
C1037      F1052   1.382       .  S
C1039      F1047   1.382       .  S
C1039      F1048   1.381       .  S
C1039      F1049   1.385       .  S
C1053      C1054   1.402       .  A
C1053      C1058   1.404       .  A
C1053      H1063   1.083       .  S
C1054      C1059   1.477       .  S
C1054      C1055   1.414       .  A
C1055      C1056   1.404       .  A
C1055      C1060   1.520       .  S
C1056      C1057   1.402       .  A
C1056      H1061   1.083       .  S
C1057      C1058   1.415       .  A
C1058      C1062   1.519       .  S
C1059      C1064   1.413       .  A
C1059      C1068   1.403       .  A
C1060      F1076   1.382       .  S
C1060      F1077   1.382       .  S
C1060      F1078   1.384       .  S
C1062      F1073   1.385       .  S
C1062      F1074   1.381       .  S
C1062      F1075   1.384       .  S
C1064      C1065   1.400       .  A
C1064      C1069   1.522       .  S
C1065      C1066   1.407       .  A
C1065      H1070   1.083       .  S
C1066      C1067   1.417       .  A
C1067      C1068   1.407       .  A
C1067      C1071   1.519       .  S
C1068      H1072   1.083       .  S
C1069      F1082   1.384       .  S
C1069      F1083   1.381       .  S
C1069      F1084   1.382       .  S
C1071      F1079   1.382       .  S
C1071      F1080   1.384       .  S
C1071      F1081   1.385       .  S
C1085      C1086   1.399       .  A
C1085      C1090   1.400       .  A
C1085      H1095   1.084       .  S
C1086      C1091   1.469       .  S
C1086      C1087   1.412       .  A
C1087      C1088   1.403       .  A
C1087      C1092   1.521       .  S
C1088      C1089   1.405       .  A
C1088      H1093   1.083       .  S
C1089      C1090   1.417       .  A
C1090      C1094   1.520       .  S
C1091      C1096   1.410       .  A
C1091      C1100   1.399       .  A
C1092      F1108   1.383       .  S
C1092      F1109   1.381       .  S
C1092      F1110   1.384       .  S
C1094      F1105   1.382       .  S
C1094      F1106   1.384       .  S
C1094      F1107   1.384       .  S
C1096      C1097   1.400       .  A
C1096      C1101   1.521       .  S
C1097      C1098   1.409       .  A
C1097      H1102   1.083       .  S
C1098      C1099   1.421       .  A
C1099      C1100   1.402       .  A
C1099      C1103   1.521       .  S
C1100      H1104   1.083       .  S
C1101      F1114   1.385       .  S
C1101      F1115   1.383       .  S
C1101      F1116   1.381       .  S
C1103      F1111   1.384       .  S
C1103      F1112   1.384       .  S
C1103      F1113   1.383       .  S
C1117      C1118   1.396       .  A
C1117      C1122   1.404       .  A
C1117      H1127   1.084       .  S
C1118      C1123   1.478       .  S
C1118      C1119   1.411       .  A
C1119      C1120   1.406       .  A
C1119      C1124   1.519       .  S
C1120      C1121   1.411       .  A
C1120      H1125   1.083       .  S
C1121      C1122   1.424       .  A
C1122      C1126   1.511       .  S
C1123      C1128   1.415       .  A
C1123      C1132   1.401       .  A
C1124      F1140   1.382       .  S
C1124      F1141   1.382       .  S
C1124      F1142   1.384       .  S
C1126      F1137   1.381   1_545  S
C1126      F1138   1.385       .  S
C1126      F1139   1.376       .  S
C1128      C1129   1.403       .  A
C1128      C1133   1.520   1_545  S
C1129      C1130   1.403       .  A
C1129      H1134   1.083   1_545  S
C1130      C1131   1.418       .  A
C1131      C1132   1.405       .  A
C1131      C1135   1.519       .  S
C1132      H1136   1.083       .  S
C1133      F1146   1.385       .  S
C1133      F1147   1.382       .  S
C1133      F1148   1.382       .  S
C1135      F1143   1.385       .  S
C1135      F1144   1.384       .  S
C1135      F1145   1.382       .  S
C1149      C1150   1.399   1_545  A
C1149      C1154   1.399       .  A
C1149      H1159   1.084       .  S
C1150      C1155   1.471       .  S
C1150      C1151   1.414       .  A
C1151      C1152   1.404       .  A
C1151      C1156   1.520       .  S
C1152      C1153   1.402   1_565  A
C1152      H1157   1.083       .  S
C1153      C1154   1.414       .  A
C1154      C1158   1.519       .  S
C1155      C1160   1.412       .  A
C1155      C1164   1.398       .  A
C1156      F1172   1.382       .  S
C1156      F1173   1.382       .  S
C1156      F1174   1.385       .  S
C1158      F1169   1.384       .  S
C1158      F1170   1.382       .  S
C1158      F1171   1.383       .  S
C1160      C1161   1.401       .  A
C1160      C1165   1.522       .  S
C1161      C1162   1.407       .  A
C1161      H1166   1.083       .  S
C1162      C1163   1.422       .  A
C1163      C1164   1.404       .  A
C1163      C1167   1.520       .  S
C1164      H1168   1.083       .  S
C1165      F1178   1.385       .  S
C1165      F1179   1.382       .  S
C1165      F1180   1.382       .  S
C1167      F1175   1.382       .  S
C1167      F1176   1.383       .  S
C1167      F1177   1.385       .  S
C1181      C1182   1.396       .  A
C1181      C1186   1.407       .  A
C1181      H1191   1.083       .  S
C1182      C1187   1.483       .  S
C1182      C1183   1.411       .  A
C1183      C1184   1.408       .  A
C1183      C1188   1.519       .  S
C1184      C1185   1.413       .  A
C1184      H1189   1.081       .  S
C1185      C1186   1.430       .  A
C1186      C1190   1.520       .  S
C1187      C1192   1.417       .  A
C1187      C1196   1.402       .  A
C1188      F1204   1.383       .  S
C1188      F1205   1.382       .  S
C1188      F1206   1.382       .  S
C1190      F1201   1.385       .  S
C1190      F1202   1.380       .  S
C1190      F1203   1.383       .  S
C1192      C1193   1.406       .  A
C1192      C1197   1.521       .  S
C1193      C1194   1.400       .  A
C1193      H1198   1.083       .  S
C1194      C1195   1.416       .  A
C1195      C1196   1.408       .  A
C1195      C1199   1.518       .  S
C1196      H1200   1.083       .  S
C1197      F1210   1.384       .  S
C1197      F1211   1.382       .  S
C1197      F1212   1.382       .  S
C1199      F1207   1.384       .  S
C1199      F1208   1.384       .  S
C1199      F1209   1.382       .  S
C1213      C1214   1.401       .  A
C1213      C1218   1.407       .  A
C1213      H1223   1.083       .  S
C1214      C1219   1.488       .  S
C1214      C1215   1.416       .  A
C1215      C1216   1.409       .  A
C1215      C1220   1.519   1_565  S
C1216      C1217   1.407       .  A
C1216      H1221   1.083   1_565  S
C1217      C1218   1.421       .  A
C1218      C1222   1.520       .  S
C1219      C1224   1.415       .  A
C1219      C1228   1.401       .  A
C1220      F1236   1.382   1_545  S
C1220      F1237   1.382       .  S
C1220      F1238   1.385       .  S
C1222      F1233   1.384       .  S
C1222      F1234   1.383       .  S
C1222      F1235   1.382   1_455  S
C1224      C1225   1.409       .  A
C1224      C1229   1.521   1_565  S
C1225      C1226   1.408       .  A
C1225      H1230   1.083   1_565  S
C1226      C1227   1.425       .  A
C1227      C1228   1.410       .  A
C1227      C1231   1.520       .  S
C1228      H1232   1.083       .  S
C1229      F1242   1.384       .  S
C1229      F1243   1.382   1_545  S
C1229      F1244   1.382       .  S
C1231      F1239   1.385       .  S
C1231      F1240   1.382       .  S
C1231      F1241   1.383       .  S
C1245      C1246   1.403       .  A
C1245      C1250   1.406       .  A
C1245      H1255   1.083       .  S
C1246      C1251   1.481       .  S
C1246      C1247   1.415       .  A
C1247      C1248   1.407       .  A
C1247      C1252   1.520       .  S
C1248      C1249   1.403       .  A
C1248      H1253   1.083       .  S
C1249      C1250   1.414       .  A
C1250      C1254   1.516       .  S
C1251      C1256   1.415       .  A
C1251      C1260   1.402       .  A
C1252      F1268   1.382       .  S
C1252      F1269   1.383       .  S
C1252      F1270   1.384       .  S
C1254      F1265   1.384       .  S
C1254      F1266   1.379       .  S
C1254      F1267   1.383       .  S
C1256      C1257   1.403       .  A
C1256      C1261   1.519       .  S
C1257      C1258   1.406       .  A
C1257      H1262   1.083       .  S
C1258      C1259   1.420       .  A
C1259      C1260   1.406       .  A
C1259      C1263   1.518       .  S
C1260      H1264   1.084       .  S
C1261      F1274   1.385       .  S
C1261      F1275   1.382       .  S
C1261      F1276   1.382       .  S
C1263      F1271   1.382       .  S
C1263      F1272   1.384       .  S
C1263      F1273   1.385       .  S
C1277      C1278   1.402       .  A
C1277      C1282   1.408       .  A
C1277      H1287   1.083       .  S
C1278      C1283   1.488       .  S
C1278      C1279   1.416       .  A
C1279      C1280   1.409       .  A
C1279      C1284   1.519       .  S
C1280      C1281   1.406       .  A
C1280      H1285   1.083       .  S
C1281      C1282   1.418       .  A
C1282      C1286   1.515       .  S
C1283      C1288   1.412       .  A
C1283      C1292   1.401       .  A
C1284      F1300   1.382       .  S
C1284      F1301   1.382       .  S
C1284      F1302   1.385       .  S
C1286      F1297   1.381       .  S
C1286      F1298   1.385       .  S
C1286      F1299   1.384       .  S
C1288      C1289   1.406       .  A
C1288      C1293   1.521       .  S
C1289      C1290   1.408       .  A
C1289      H1294   1.075       .  S
C1290      C1291   1.428       .  A
C1291      C1292   1.413       .  A
C1291      C1295   1.521       .  S
C1292      H1296   1.083       .  S
C1293      F1306   1.384       .  S
C1293      F1307   1.382       .  S
C1293      F1308   1.382       .  S
C1295      F1303   1.384       .  S
C1295      F1304   1.382       .  S
C1295      F1305   1.385       .  S
C1309      C1310   1.403       .  A
C1309      C1314   1.408       .  A
C1309      H1319   1.083       .  S
C1310      C1315   1.485       .  S
C1310      C1311   1.417       .  A
C1311      C1312   1.405       .  A
C1311      C1316   1.520       .  S
C1312      C1313   1.403       .  A
C1312      H1317   1.083       .  S
C1313      C1314   1.418       .  A
C1314      C1318   1.519       .  S
C1315      C1320   1.414       .  A
C1315      C1324   1.402       .  A
C1316      F1332   1.381       .  S
C1316      F1333   1.382       .  S
C1316      F1334   1.385       .  S
C1318      F1329   1.385       .  S
C1318      F1330   1.382       .  S
C1318      F1331   1.384       .  S
C1320      C1321   1.406       .  A
C1320      C1325   1.520       .  S
C1321      C1322   1.407       .  A
C1321      H1326   1.082       .  S
C1322      C1323   1.420       .  A
C1323      C1324   1.407       .  A
C1323      C1327   1.519       .  S
C1324      H1328   1.083       .  S
C1325      F1338   1.385       .  S
C1325      F1339   1.382       .  S
C1325      F1340   1.382       .  S
C1327      F1335   1.381       .  S
C1327      F1336   1.384       .  S
C1327      F1337   1.385       .  S
C1341      C1342   1.408       .  A
C1341      C1346   1.414       .  A
C1341      H1351   1.083       .  S
C1342      C1347   1.494       .  S
C1342      C1343   1.417       .  A
C1343      C1344   1.407       .  A
C1343      C1348   1.521       .  S
C1344      C1345   1.403       .  A
C1344      H1349   1.084       .  S
C1345      C1346   1.414       .  A
C1346      C1350   1.516       .  S
C1347      C1352   1.411       .  A
C1347      C1356   1.402       .  A
C1348      F1364   1.382       .  S
C1348      F1365   1.383       .  S
C1348      F1366   1.385       .  S
C1350      F1361   1.383       .  S
C1350      F1362   1.384       .  S
C1350      F1363   1.383       .  S
C1352      C1353   1.407       .  A
C1352      C1357   1.521       .  S
C1353      C1354   1.415       .  A
C1353      H1358   1.081   1_545  S
C1354      C1355   1.432       .  A
C1355      C1356   1.416       .  A
C1355      C1359   1.521       .  S
C1356      H1360   1.083       .  S
C1357      F1370   1.384   1_545  S
C1357      F1371   1.382       .  S
C1357      F1372   1.383       .  S
C1359      F1367   1.383       .  S
C1359      F1368   1.383       .  S
C1359      F1369   1.385       .  S
C1373      C1374   1.398       .  A
C1373      C1378   1.409       .  A
C1373      H1383   1.083       .  S
C1374      C1379   1.492       .  S
C1374      C1375   1.415       .  A
C1375      C1376   1.412       .  A
C1375      C1380   1.519       .  S
C1376      C1377   1.412       .  A
C1376      H1381   1.082       .  S
C1377      C1378   1.429       .  A
C1378      C1382   1.521   1_565  S
C1379      C1384   1.417       .  A
C1379      C1388   1.402       .  A
C1380      F1396   1.382       .  S
C1380      F1397   1.382       .  S
C1380      F1398   1.385       .  S
C1382      F1393   1.383       .  S
C1382      F1394   1.385       .  S
C1382      F1395   1.383   1_545  S
C1384      C1385   1.409       .  A
C1384      C1389   1.518       .  S
C1385      C1386   1.404       .  A
C1385      H1390   1.082       .  S
C1386      C1387   1.423       .  A
C1387      C1388   1.411       .  A
C1387      C1391   1.519       .  S
C1388      H1392   1.083       .  S
C1389      F1402   1.384       .  S
C1389      F1403   1.381   1_565  S
C1389      F1404   1.382       .  S
C1391      F1399   1.385       .  S
C1391      F1400   1.383       .  S
C1391      F1401   1.382       .  S
C1405      C1406   1.400       .  A
C1405      C1410   1.404       .  A
C1405      H1415   1.083       .  S
C1406      C1411   1.477       .  S
C1406      C1407   1.413       .  A
C1407      C1408   1.405       .  A
C1407      C1412   1.519       .  S
C1408      C1409   1.404       .  A
C1408      H1413   1.083       .  S
C1409      C1410   1.419       .  A
C1410      C1414   1.518       .  S
C1411      C1416   1.413       .  A
C1411      C1420   1.400       .  A
C1412      F1428   1.382       .  S
C1412      F1429   1.382       .  S
C1412      F1430   1.384       .  S
C1414      F1425   1.381       .  S
C1414      F1426   1.385       .  S
C1414      F1427   1.383       .  S
C1416      C1417   1.402       .  A
C1416      C1421   1.520       .  S
C1417      C1418   1.407       .  A
C1417      H1422   1.083       .  S
C1418      C1419   1.423       .  A
C1419      C1420   1.404       .  A
C1419      C1423   1.521       .  S
C1420      H1424   1.083       .  S
C1421      F1434   1.385       .  S
C1421      F1435   1.381       .  S
C1421      F1436   1.381       .  S
C1423      F1431   1.385       .  S
C1423      F1432   1.382       .  S
C1423      F1433   1.383       .  S
C1437      C1438   1.399       .  A
C1437      C1442   1.403       .  A
C1437      H1447   1.083       .  S
C1438      C1443   1.478       .  S
C1438      C1439   1.414       .  A
C1439      C1440   1.403       .  A
C1439      C1444   1.520       .  S
C1440      C1441   1.405       .  A
C1440      H1445   1.080       .  S
C1441      C1442   1.420       .  A
C1442      C1446   1.518       .  S
C1443      C1448   1.416       .  A
C1443      C1452   1.403       .  A
C1444      F1460   1.381       .  S
C1444      F1461   1.383       .  S
C1444      F1462   1.385       .  S
C1446      F1457   1.385       .  S
C1446      F1458   1.380       .  S
C1446      F1459   1.383       .  S
C1448      C1449   1.401       .  A
C1448      C1453   1.521       .  S
C1449      C1450   1.404       .  A
C1449      H1454   1.084       .  S
C1450      C1451   1.414       .  A
C1451      C1452   1.405       .  A
C1451      C1455   1.518       .  S
C1452      H1456   1.083       .  S
C1453      F1466   1.385       .  S
C1453      F1467   1.381       .  S
C1453      F1468   1.383       .  S
C1455      F1463   1.382       .  S
C1455      F1464   1.383       .  S
C1455      F1465   1.385       .  S
C1469      C1470   1.399       .  A
C1469      C1474   1.409       .  A
C1469      H1479   1.083       .  S
C1470      C1475   1.485       .  S
C1470      C1471   1.411       .  A
C1471      C1472   1.404       .  A
C1471      C1476   1.521       .  S
C1472      C1473   1.412       .  A
C1472      H1477   1.078       .  S
C1473      C1474   1.431       .  A
C1474      C1478   1.523       .  S
C1475      C1480   1.418       .  A
C1475      C1484   1.402       .  A
C1476      F1492   1.381       .  S
C1476      F1493   1.383       .  S
C1476      F1494   1.385       .  S
C1478      F1489   1.383       .  S
C1478      F1490   1.385       .  S
C1478      F1491   1.383       .  S
C1480      C1481   1.407       .  A
C1480      C1485   1.520       .  S
C1481      C1482   1.401       .  A
C1481      H1486   1.083       .  S
C1482      C1483   1.413       .  A
C1483      C1484   1.406       .  A
C1483      C1487   1.516       .  S
C1484      H1488   1.083       .  S
C1485      F1498   1.384       .  S
C1485      F1499   1.382       .  S
C1485      F1500   1.383       .  S
C1487      F1495   1.385       .  S
C1487      F1496   1.382       .  S
C1487      F1497   1.383       .  S
C1501      C1502   1.398       .  A
C1501      C1506   1.407       .  A
C1501      H1511   1.083   1_565  S
C1502      C1507   1.479       .  S
C1502      C1503   1.412       .  A
C1503      C1504   1.406       .  A
C1503      C1508   1.520       .  S
C1504      C1505   1.410       .  A
C1504      H1509   1.083       .  S
C1505      C1506   1.426       .  A
C1506      C1510   1.521   1_565  S
C1507      C1512   1.414       .  A
C1507      C1516   1.400       .  A
C1508      F1524   1.383       .  S
C1508      F1525   1.381       .  S
C1508      F1526   1.384       .  S
C1510      F1521   1.382       .  S
C1510      F1522   1.385       .  S
C1510      F1523   1.384   1_545  S
C1512      C1513   1.405       .  A
C1512      C1517   1.520       .  S
C1513      C1514   1.405       .  A
C1513      H1518   1.082       .  S
C1514      C1515   1.419       .  A
C1515      C1516   1.405       .  A
C1515      C1519   1.520       .  S
C1516      H1520   1.083       .  S
C1517      F1530   1.385   1_565  S
C1517      F1531   1.382   1_565  S
C1517      F1532   1.381       .  S
C1519      F1527   1.384       .  S
C1519      F1528   1.383       .  S
C1519      F1529   1.382       .  S
C1533      C1534   1.397       .  A
C1533      C1538   1.407       .  A
C1533      H1543   1.083       .  S
C1534      C1539   1.480       .  S
C1534      C1535   1.412       .  A
C1535      C1536   1.403       .  A
C1535      C1540   1.520       .  S
C1536      C1537   1.410       .  A
C1536      H1541   1.082       .  S
C1537      C1538   1.434       .  A
C1538      C1542   1.525       .  S
C1539      C1544   1.415       .  A
C1539      C1548   1.402       .  A
C1540      F1556   1.382       .  S
C1540      F1557   1.382       .  S
C1540      F1558   1.384       .  S
C1542      F1553   1.383       .  S
C1542      F1554   1.385       .  S
C1542      F1555   1.383       .  S
C1544      C1545   1.406       .  A
C1544      C1549   1.518       .  S
C1545      C1546   1.402       .  A
C1545      H1550   1.083       .  S
C1546      C1547   1.414       .  A
C1547      C1548   1.403       .  A
C1547      C1551   1.518       .  S
C1548      H1552   1.084       .  S
C1549      F1562   1.385       .  S
C1549      F1563   1.382       .  S
C1549      F1564   1.382       .  S
C1551      F1559   1.383       .  S
C1551      F1560   1.385       .  S
C1551      F1561   1.382       .  S
C1565      C1566   1.401       .  A
C1565      C1570   1.405       .  A
C1565      H1575   1.083       .  S
C1566      C1571   1.481       .  S
C1566      C1567   1.415       .  A
C1567      C1568   1.405       .  A
C1567      C1572   1.519       .  S
C1568      C1569   1.403       .  A
C1568      H1573   1.083       .  S
C1569      C1570   1.416       .  A
C1570      C1574   1.516       .  S
C1571      C1576   1.413       .  A
C1571      C1580   1.400       .  A
C1572      F1588   1.382       .  S
C1572      F1589   1.382       .  S
C1572      F1590   1.385       .  S
C1574      F1585   1.385       .  S
C1574      F1586   1.383       .  S
C1574      F1587   1.382       .  S
C1576      C1577   1.404       .  A
C1576      C1581   1.519       .  S
C1577      C1578   1.407       .  A
C1577      H1582   1.083       .  S
C1578      C1579   1.422       .  A
C1579      C1580   1.406       .  A
C1579      C1583   1.519       .  S
C1580      H1584   1.083       .  S
C1581      F1594   1.383       .  S
C1581      F1595   1.382       .  S
C1581      F1596   1.382       .  S
C1583      F1591   1.382       .  S
C1583      F1592   1.382       .  S
C1583      F1593   1.385       .  S
C1597      C1598   1.402   1_655  A
C1597      C1602   1.406       .  A
C1597      H1607   1.083       .  S
C1598      C1603   1.482       .  S
C1598      C1599   1.418       .  A
C1599      C1600   1.405   1_455  A
C1599      C1604   1.521       .  S
C1600      C1601   1.401       .  A
C1600      H1605   1.083       .  S
C1601      C1602   1.412       .  A
C1602      C1606   1.516       .  S
C1603      C1608   1.411       .  A
C1603      C1612   1.395       .  A
C1604      F1620   1.382       .  S
C1604      F1621   1.382       .  S
C1604      F1622   1.385       .  S
C1606      F1617   1.384       .  S
C1606      F1618   1.381       .  S
C1606      F1619   1.381       .  S
C1608      C1609   1.406       .  A
C1608      C1613   1.519       .  S
C1609      C1610   1.412       .  A
C1609      H1614   1.082       .  S
C1610      C1611   1.435       .  A
C1611      C1612   1.406       .  A
C1611      C1615   1.524       .  S
C1612      H1616   1.083       .  S
C1613      F1626   1.385       .  S
C1613      F1627   1.382       .  S
C1613      F1628   1.382       .  S
C1615      F1623   1.383       .  S
C1615      F1624   1.381       .  S
C1615      F1625   1.385       .  S
C1629      C1630   1.400       .  A
C1629      C1634   1.402       .  A
C1629      H1639   1.083       .  S
C1630      C1635   1.476       .  S
C1630      C1631   1.415       .  A
C1631      C1632   1.405       .  A
C1631      C1636   1.519       .  S
C1632      C1633   1.401       .  A
C1632      H1637   1.083       .  S
C1633      C1634   1.413       .  A
C1634      C1638   1.516       .  S
C1635      C1640   1.410       .  A
C1635      C1644   1.397       .  A
C1636      F1652   1.382       .  S
C1636      F1653   1.382       .  S
C1636      F1654   1.385       .  S
C1638      F1649   1.384       .  S
C1638      F1650   1.385       .  S
C1638      F1651   1.381       .  S
C1640      C1641   1.403       .  A
C1640      C1645   1.521       .  S
C1641      C1642   1.410       .  A
C1641      H1646   1.082       .  S
C1642      C1643   1.429       .  A
C1643      C1644   1.406       .  A
C1643      C1647   1.522       .  S
C1644      H1648   1.083       .  S
C1645      F1658   1.384       .  S
C1645      F1659   1.382       .  S
C1645      F1660   1.382       .  S
C1647      F1655   1.385       .  S
C1647      F1656   1.383       .  S
C1647      F1657   1.383       .  S
C1661      C1662   1.400       .  A
C1661      C1666   1.407       .  A
C1661      H1671   1.083       .  S
C1662      C1667   1.481       .  S
C1662      C1663   1.413       .  A
C1663      C1664   1.403       .  A
C1663      C1668   1.520       .  S
C1664      C1665   1.406       .  A
C1664      H1669   1.083       .  S
C1665      C1666   1.424       .  A
C1666      C1670   1.522       .  S
C1667      C1672   1.415       .  A
C1667      C1676   1.400       .  A
C1668      F1684   1.382       .  S
C1668      F1685   1.382       .  S
C1668      F1686   1.385       .  S
C1670      F1681   1.383       .  S
C1670      F1682   1.385       .  S
C1670      F1683   1.384       .  S
C1672      C1673   1.403       .  A
C1672      C1677   1.516       .  S
C1673      C1674   1.401   1_655  A
C1673      H1678   1.083       .  S
C1674      C1675   1.419       .  A
C1675      C1676   1.406   1_455  A
C1675      C1679   1.518       .  S
C1676      H1680   1.083       .  S
C1677      F1690   1.385       .  S
C1677      F1691   1.380       .  S
C1677      F1692   1.383       .  S
C1679      F1687   1.385       .  S
C1679      F1688   1.383       .  S
C1679      F1689   1.382       .  S
C1693      C1694   1.401       .  A
C1693      C1698   1.404       .  A
C1693      H1703   1.083       .  S
C1694      C1699   1.482       .  S
C1694      C1695   1.416       .  A
C1695      C1696   1.404       .  A
C1695      C1700   1.519       .  S
C1696      C1697   1.401       .  A
C1696      H1701   1.082       .  S
C1697      C1698   1.420       .  A
C1698      C1702   1.522       .  S
C1699      C1704   1.414       .  A
C1699      C1708   1.403       .  A
C1700      F1716   1.381       .  S
C1700      F1717   1.382       .  S
C1700      F1718   1.385       .  S
C1702      F1713   1.385       .  S
C1702      F1714   1.382       .  S
C1702      F1715   1.384       .  S
C1704      C1705   1.402       .  A
C1704      C1709   1.521       .  S
C1705      C1706   1.404       .  A
C1705      H1710   1.081       .  S
C1706      C1707   1.421       .  A
C1707      C1708   1.409       .  A
C1707      C1711   1.520       .  S
C1708      H1712   1.083       .  S
C1709      F1722   1.384       .  S
C1709      F1723   1.382       .  S
C1709      F1724   1.383       .  S
C1711      F1719   1.382       .  S
C1711      F1720   1.384       .  S
C1711      F1721   1.385       .  S
C1725      C1726   1.405       .  A
C1725      C1730   1.408       .  A
C1725      H1735   1.083       .  S
C1726      C1731   1.491       .  S
C1726      C1727   1.421       .  A
C1727      C1728   1.407       .  A
C1727      C1732   1.520       .  S
C1728      C1729   1.399       .  A
C1728      H1733   1.083       .  S
C1729      C1730   1.413       .  A
C1730      C1734   1.517       .  S
C1731      C1736   1.417       .  A
C1731      C1740   1.396       .  A
C1732      F1748   1.382       .  S
C1732      F1749   1.382       .  S
C1732      F1750   1.385       .  S
C1734      F1745   1.382       .  S
C1734      F1746   1.385       .  S
C1734      F1747   1.384       .  S
C1736      C1737   1.411       .  A
C1736      C1741   1.519       .  S
C1737      C1738   1.410       .  A
C1737      H1742   1.082       .  S
C1738      C1739   1.433       .  A
C1739      C1740   1.406       .  A
C1739      C1743   1.523       .  S
C1740      H1744   1.083       .  S
C1741      F1754   1.385       .  S
C1741      F1755   1.381       .  S
C1741      F1756   1.383       .  S
C1743      F1751   1.385       .  S
C1743      F1752   1.383   1_545  S
C1743      F1753   1.383       .  S
C1757      C1758   1.396       .  A
C1757      C1762   1.407       .  A
C1757      H1767   1.083       .  S
C1758      C1763   1.482       .  S
C1758      C1759   1.412       .  A
C1759      C1760   1.407       .  A
C1759      C1764   1.522       .  S
C1760      C1761   1.412       .  A
C1760      H1765   1.081       .  S
C1761      C1762   1.431       .  A
C1762      C1766   1.520       .  S
C1763      C1768   1.417       .  A
C1763      C1772   1.398       .  A
C1764      F1780   1.382       .  S
C1764      F1781   1.382       .  S
C1764      F1782   1.384       .  S
C1766      F1777   1.385       .  S
C1766      F1778   1.383       .  S
C1766      F1779   1.383       .  S
C1768      C1769   1.411       .  A
C1768      C1773   1.518       .  S
C1769      C1770   1.403       .  A
C1769      H1774   1.082       .  S
C1770      C1771   1.414       .  A
C1771      C1772   1.399       .  A
C1771      C1775   1.515       .  S
C1772      H1776   1.084       .  S
C1773      F1786   1.385       .  S
C1773      F1787   1.382       .  S
C1773      F1788   1.382       .  S
C1775      F1783   1.385       .  S
C1775      F1784   1.382       .  S
C1775      F1785   1.380       .  S
C1789      C1790   1.399       .  A
C1789      C1794   1.407       .  A
C1789      H1799   1.083       .  S
C1790      C1795   1.479       .  S
C1790      C1791   1.413       .  A
C1791      C1792   1.404       .  A
C1791      C1796   1.521       .  S
C1792      C1793   1.407       .  A
C1792      H1797   1.080       .  S
C1793      C1794   1.425       .  A
C1794      C1798   1.521       .  S
C1795      C1800   1.415       .  A
C1795      C1804   1.401       .  A
C1796      F1812   1.382       .  S
C1796      F1813   1.382       .  S
C1796      F1814   1.385       .  S
C1798      F1809   1.382       .  S
C1798      F1810   1.385       .  S
C1798      F1811   1.384       .  S
C1800      C1801   1.404       .  A
C1800      C1805   1.519       .  S
C1801      C1802   1.403       .  A
C1801      H1806   1.083       .  S
C1802      C1803   1.416       .  A
C1803      C1804   1.404       .  A
C1803      C1807   1.517       .  S
C1804      H1808   1.083       .  S
C1805      F1818   1.385       .  S
C1805      F1819   1.382       .  S
C1805      F1820   1.382       .  S
C1807      F1815   1.385       .  S
C1807      F1816   1.383       .  S
C1807      F1817   1.380       .  S
C1821      C1822   1.395       .  A
C1821      C1826   1.402       .  A
C1821      H1831   1.083       .  S
C1822      C1827   1.483       .  S
C1822      C1823   1.414       .  A
C1823      C1824   1.410       .  A
C1823      C1828   1.517       .  S
C1824      C1825   1.409       .  A
C1824      H1829   1.082       .  S
C1825      C1826   1.429       .  A
C1826      C1830   1.519       .  S
C1827      C1832   1.417       .  A
C1827      C1836   1.402       .  A
C1828      F1844   1.382       .  S
C1828      F1845   1.381       .  S
C1828      F1846   1.385   1_554  S
C1830      F1841   1.386       .  S
C1830      F1842   1.378       .  S
C1830      F1843   1.383       .  S
C1832      C1833   1.409       .  A
C1832      C1837   1.519       .  S
C1833      C1834   1.404       .  A
C1833      H1838   1.083       .  S
C1834      C1835   1.418       .  A
C1835      C1836   1.405       .  A
C1835      C1839   1.521       .  S
C1836      H1840   1.084       .  S
C1837      F1850   1.384       .  S
C1837      F1851   1.382       .  S
C1837      F1852   1.381       .  S
C1839      F1847   1.385       .  S
C1839      F1848   1.384       .  S
C1839      F1849   1.381       .  S
C1853      C1854   1.405       .  A
C1853      C1858   1.409       .  A
C1853      H1863   1.083       .  S
C1854      C1859   1.485       .  S
C1854      C1855   1.418       .  A
C1855      C1856   1.405       .  A
C1855      C1860   1.519       .  S
C1856      C1857   1.399       .  A
C1856      H1861   1.084       .  S
C1857      C1858   1.414       .  A
C1858      C1862   1.517       .  S
C1859      C1864   1.414       .  A
C1859      C1868   1.399       .  A
C1860      F1876   1.382       .  S
C1860      F1877   1.381       .  S
C1860      F1878   1.385       .  S
C1862      F1873   1.383       .  S
C1862      F1874   1.384       .  S
C1862      F1875   1.383       .  S
C1864      C1865   1.409       .  A
C1864      C1869   1.519       .  S
C1865      C1866   1.407       .  A
C1865      H1870   1.083       .  S
C1866      C1867   1.425       .  A
C1867      C1868   1.407       .  A
C1867      C1871   1.519       .  S
C1868      H1872   1.084       .  S
C1869      F1882   1.384       .  S
C1869      F1883   1.382       .  S
C1869      F1884   1.382       .  S
C1871      F1879   1.385       .  S
C1871      F1880   1.381       .  S
C1871      F1881   1.384       .  S
C1885      C1886   1.401       .  A
C1885      C1890   1.407       .  A
C1885      H1895   1.083       .  S
C1886      C1891   1.479       .  S
C1886      C1887   1.414       .  A
C1887      C1888   1.404       .  A
C1887      C1892   1.521       .  S
C1888      C1889   1.405       .  A
C1888      H1893   1.083       .  S
C1889      C1890   1.420       .  A
C1890      C1894   1.519       .  S
C1891      C1896   1.412       .  A
C1891      C1900   1.398       .  A
C1892      F1908   1.382       .  S
C1892      F1909   1.382       .  S
C1892      F1910   1.384       .  S
C1894      F1905   1.385       .  S
C1894      F1906   1.382       .  S
C1894      F1907   1.384   1_545  S
C1896      C1897   1.406       .  A
C1896      C1901   1.519       .  S
C1897      C1898   1.406       .  A
C1897      H1902   1.078       .  S
C1898      C1899   1.424       .  A
C1899      C1900   1.404       .  A
C1899      C1903   1.519       .  S
C1900      H1904   1.083       .  S
C1901      F1914   1.383       .  S
C1901      F1915   1.382       .  S
C1901      F1916   1.382       .  S
C1903      F1911   1.381       .  S
C1903      F1912   1.382       .  S
C1903      F1913   1.385       .  S
C1917      C1918   1.401   1_566  A
C1917      C1922   1.401       .  A
C1917      H1927   1.085       .  S
C1918      C1923   1.481       .  S
C1918      C1919   1.414       .  A
C1919      C1920   1.408   1_554  A
C1919      C1924   1.518       .  S
C1920      C1921   1.404       .  A
C1920      H1925   1.083       .  S
C1921      C1922   1.417   1_545  A
C1922      C1926   1.519       .  S
C1923      C1928   1.413   1_554  A
C1923      C1932   1.401       .  A
C1924      F1940   1.382       .  S
C1924      F1941   1.382       .  S
C1924      F1942   1.384       .  S
C1926      F1937   1.384       .  S
C1926      F1938   1.383       .  S
C1926      F1939   1.381       .  S
C1928      C1929   1.402   1_556  A
C1928      C1933   1.521       .  S
C1929      C1930   1.408       .  A
C1929      H1934   1.082   1_554  S
C1930      C1931   1.422       .  A
C1931      C1932   1.409       .  A
C1931      C1935   1.519       .  S
C1932      H1936   1.083       .  S
C1933      F1946   1.384       .  S
C1933      F1947   1.381       .  S
C1933      F1948   1.382       .  S
C1935      F1943   1.385       .  S
C1935      F1944   1.380   1_545  S
C1935      F1945   1.383       .  S
C1949      C1950   1.400       .  A
C1949      C1954   1.406       .  A
C1949      H1959   1.083       .  S
C1950      C1955   1.481       .  S
C1950      C1951   1.414       .  A
C1951      C1952   1.405   1_565  A
C1951      C1956   1.520   1_565  S
C1952      C1953   1.405   1_544  A
C1952      H1957   1.083   1_554  S
C1953      C1954   1.420   1_556  A
C1954      C1958   1.518       .  S
C1955      C1960   1.412       .  A
C1955      C1964   1.402       .  A
C1956      F1972   1.382   1_545  S
C1956      F1973   1.382       .  S
C1956      F1974   1.385       .  S
C1958      F1969   1.383       .  S
C1958      F1970   1.384       .  S
C1958      F1971   1.382   1_554  S
C1960      C1961   1.402       .  A
C1960      C1965   1.520       .  S
C1961      C1962   1.405       .  A
C1961      H1966   1.080       .  S
C1962      C1963   1.424       .  A
C1963      C1964   1.409       .  A
C1963      C1967   1.521       .  S
C1964      H1968   1.083       .  S
C1965      F1978   1.384       .  S
C1965      F1979   1.382       .  S
C1965      F1980   1.382       .  S
C1967      F1975   1.385   1_554  S
C1967      F1976   1.383       .  S
C1967      F1977   1.382       .  S
C1981      C1982   1.398       .  A
C1981      C1986   1.402       .  A
C1981      H1991   1.083       .  S
C1982      C1987   1.472       .  S
C1982      C1983   1.412       .  A
C1983      C1984   1.402       .  A
C1983      C1988   1.520       .  S
C1984      C1985   1.406       .  A
C1984      H1989   1.083       .  S
C1985      C1986   1.423       .  A
C1986      C1990   1.523       .  S
C1987      C1992   1.412       .  A
C1987      C1996   1.399       .  A
C1988      F2004   1.382       .  S
C1988      F2005   1.382       .  S
C1988      F2006   1.385       .  S
C1990      F2001   1.385       .  S
C1990      F2002   1.383       .  S
C1990      F2003   1.382       .  S
C1992      C1993   1.403       .  A
C1992      C1997   1.521       .  S
C1993      C1994   1.406       .  A
C1993      H1998   1.083       .  S
C1994      C1995   1.419       .  A
C1995      C1996   1.403       .  A
C1995      C1999   1.519       .  S
C1996      H2000   1.084       .  S
C1997      F2010   1.385       .  S
C1997      F2011   1.382       .  S
C1997      F2012   1.382       .  S
C1999      F2007   1.382       .  S
C1999      F2008   1.383       .  S
C1999      F2009   1.385       .  S
C2013      C2014   1.398       .  A
C2013      C2018   1.404       .  A
C2013      H2023   1.084       .  S
C2014      C2019   1.477       .  S
C2014      C2015   1.414       .  A
C2015      C2016   1.407       .  A
C2015      C2020   1.520       .  S
C2016      C2017   1.405       .  A
C2016      H2021   1.083       .  S
C2017      C2018   1.419       .  A
C2018      C2022   1.519       .  S
C2019      C2024   1.414       .  A
C2019      C2028   1.401       .  A
C2020      F2036   1.383       .  S
C2020      F2037   1.382       .  S
C2020      F2038   1.383       .  S
C2022      F2033   1.382       .  S
C2022      F2034   1.385       .  S
C2022      F2035   1.384       .  S
C2024      C2025   1.402       .  A
C2024      C2029   1.521       .  S
C2025      C2026   1.405       .  A
C2025      H2030   1.083       .  S
C2026      C2027   1.418       .  A
C2027      C2028   1.406       .  A
C2027      C2031   1.518       .  S
C2028      H2032   1.083       .  S
C2029      F2042   1.385       .  S
C2029      F2043   1.382       .  S
C2029      F2044   1.382       .  S
C2031      F2039   1.385       .  S
C2031      F2040   1.384       .  S
C2031      F2041   1.382       .  S
C2045      C2046   1.399       .  A
C2045      C2050   1.404       .  A
C2045      H2055   1.083       .  S
C2046      C2051   1.480       .  S
C2046      C2047   1.415       .  A
C2047      C2048   1.407       .  A
C2047      C2052   1.522       .  S
C2048      C2049   1.410       .  A
C2048      H2053   1.083       .  S
C2049      C2050   1.421       .  A
C2050      C2054   1.518       .  S
C2051      C2056   1.416       .  A
C2051      C2060   1.401       .  A
C2052      F2068   1.382       .  S
C2052      F2069   1.382       .  S
C2052      F2070   1.384       .  S
C2054      F2065   1.385       .  S
C2054      F2066   1.381   1_545  S
C2054      F2067   1.384   1_545  S
C2056      C2057   1.408       .  A
C2056      C2061   1.518       .  S
C2057      C2058   1.403       .  A
C2057      H2062   1.083       .  S
C2058      C2059   1.414       .  A
C2059      C2060   1.402       .  A
C2059      C2063   1.516       .  S
C2060      H2064   1.084       .  S
C2061      F2074   1.385       .  S
C2061      F2075   1.382       .  S
C2061      F2076   1.382       .  S
C2063      F2071   1.378       .  S
C2063      F2072   1.383       .  S
C2063      F2073   1.385       .  S
C2077      C2078   1.398       .  A
C2077      C2082   1.404       .  A
C2077      H2087   1.083       .  S
C2078      C2083   1.482       .  S
C2078      C2079   1.413       .  A
C2079      C2080   1.409       .  A
C2079      C2084   1.520       .  S
C2080      C2081   1.411       .  A
C2080      H2085   1.083       .  S
C2081      C2082   1.423       .  A
C2082      C2086   1.516       .  S
C2083      C2088   1.414       .  A
C2083      C2092   1.402       .  A
C2084      F2100   1.382       .  S
C2084      F2101   1.381       .  S
C2084      F2102   1.385       .  S
C2086      F2097   1.382       .  S
C2086      F2098   1.385       .  S
C2086      F2099   1.382       .  S
C2088      C2089   1.403       .  A
C2088      C2093   1.520       .  S
C2089      C2090   1.406       .  A
C2089      H2094   1.083       .  S
C2090      C2091   1.423       .  A
C2091      C2092   1.409       .  A
C2091      C2095   1.521       .  S
C2092      H2096   1.083       .  S
C2093      F2106   1.385       .  S
C2093      F2107   1.382       .  S
C2093      F2108   1.381       .  S
C2095      F2103   1.385       .  S
C2095      F2104   1.381       .  S
C2095      F2105   1.382       .  S
C2109      C2110   1.400       .  A
C2109      C2114   1.406       .  A
C2109      H2119   1.083       .  S
C2110      C2115   1.478       .  S
C2110      C2111   1.414       .  A
C2111      C2112   1.404       .  A
C2111      C2116   1.521       .  S
C2112      C2113   1.405       .  A
C2112      H2117   1.083       .  S
C2113      C2114   1.422       .  A
C2114      C2118   1.521       .  S
C2115      C2120   1.414       .  A
C2115      C2124   1.401       .  A
C2116      F2132   1.382       .  S
C2116      F2133   1.381       .  S
C2116      F2134   1.384       .  S
C2118      F2129   1.382       .  S
C2118      F2130   1.385       .  S
C2118      F2131   1.384       .  S
C2120      C2121   1.405       .  A
C2120      C2125   1.520       .  S
C2121      C2122   1.405       .  A
C2121      H2126   1.083       .  S
C2122      C2123   1.417       .  A
C2123      C2124   1.404       .  A
C2123      C2127   1.519       .  S
C2124      H2128   1.083       .  S
C2125      F2138   1.385       .  S
C2125      F2139   1.382       .  S
C2125      F2140   1.381       .  S
C2127      F2135   1.384       .  S
C2127      F2136   1.384       .  S
C2127      F2137   1.382       .  S
C2141      C2142   1.400       .  A
C2141      C2146   1.406       .  A
C2141      H2151   1.083       .  S
C2142      C2147   1.487       .  S
C2142      C2143   1.416       .  A
C2143      C2144   1.409       .  A
C2143      C2148   1.518       .  S
C2144      C2145   1.404       .  A
C2144      H2149   1.083       .  S
C2145      C2146   1.418       .  A
C2146      C2150   1.513       .  S
C2147      C2152   1.417       .  A
C2147      C2156   1.402       .  A
C2148      F2164   1.382       .  S
C2148      F2165   1.382       .  S
C2148      F2166   1.384       .  S
C2150      F2161   1.385       .  S
C2150      F2162   1.385       .  S
C2150      F2163   1.380       .  S
C2152      C2153   1.408       .  A
C2152      C2157   1.519       .  S
C2153      C2154   1.402       .  A
C2153      H2158   1.083       .  S
C2154      C2155   1.418       .  A
C2155      C2156   1.408       .  A
C2155      C2159   1.519       .  S
C2156      H2160   1.083       .  S
C2157      F2170   1.384       .  S
C2157      F2171   1.382       .  S
C2157      F2172   1.382       .  S
C2159      F2167   1.382       .  S
C2159      F2168   1.383       .  S
C2159      F2169   1.384       .  S
C2173      C2174   1.403       .  A
C2173      C2178   1.409       .  A
C2173      H2183   1.083       .  S
C2174      C2179   1.487       .  S
C2174      C2175   1.417       .  A
C2175      C2176   1.406       .  A
C2175      C2180   1.521       .  S
C2176      C2177   1.402       .  A
C2176      H2181   1.081       .  S
C2177      C2178   1.416       .  A
C2178      C2182   1.516       .  S
C2179      C2184   1.415   1_455  A
C2179      C2188   1.402       .  A
C2180      F2196   1.382       .  S
C2180      F2197   1.383       .  S
C2180      F2198   1.385       .  S
C2182      F2193   1.382       .  S
C2182      F2194   1.384       .  S
C2182      F2195   1.382       .  S
C2184      C2185   1.407       .  A
C2184      C2189   1.519       .  S
C2185      C2186   1.406       .  A
C2185      H2190   1.083       .  S
C2186      C2187   1.421       .  A
C2187      C2188   1.408   1_655  A
C2187      C2191   1.520       .  S
C2188      H2192   1.083       .  S
C2189      F2202   1.384       .  S
C2189      F2203   1.382       .  S
C2189      F2204   1.383   1_655  S
C2191      F2199   1.382       .  S
C2191      F2200   1.384       .  S
C2191      F2201   1.385   1_655  S
C2205      C2206   1.400       .  A
C2205      C2210   1.406       .  A
C2205      H2215   1.083       .  S
C2206      C2211   1.482       .  S
C2206      C2207   1.414       .  A
C2207      C2208   1.408       .  A
C2207      C2212   1.520       .  S
C2208      C2209   1.405       .  A
C2208      H2213   1.083       .  S
C2209      C2210   1.419       .  A
C2210      C2214   1.519       .  S
C2211      C2216   1.414       .  A
C2211      C2220   1.403       .  A
C2212      F2228   1.383       .  S
C2212      F2229   1.383       .  S
C2212      F2230   1.384       .  S
C2214      F2225   1.385       .  S
C2214      F2226   1.382       .  S
C2214      F2227   1.384       .  S
C2216      C2217   1.401       .  A
C2216      C2221   1.522       .  S
C2217      C2218   1.407       .  A
C2217      H2222   1.083       .  S
C2218      C2219   1.420       .  A
C2219      C2220   1.409       .  A
C2219      C2223   1.520       .  S
C2220      H2224   1.083       .  S
C2221      F2234   1.385       .  S
C2221      F2235   1.382       .  S
C2221      F2236   1.382       .  S
C2223      F2231   1.381       .  S
C2223      F2232   1.384       .  S
C2223      F2233   1.385       .  S
C2237      C2238   1.402       .  A
C2237      C2242   1.407       .  A
C2237      H2247   1.083       .  S
C2238      C2243   1.484       .  S
C2238      C2239   1.416       .  A
C2239      C2240   1.405       .  A
C2239      C2244   1.520       .  S
C2240      C2241   1.404       .  A
C2240      H2245   1.083       .  S
C2241      C2242   1.420       .  A
C2242      C2246   1.520       .  S
C2243      C2248   1.416       .  A
C2243      C2252   1.400       .  A
C2244      F2260   1.382       .  S
C2244      F2261   1.382       .  S
C2244      F2262   1.385       .  S
C2246      F2257   1.384       .  S
C2246      F2258   1.383       .  S
C2246      F2259   1.382       .  S
C2248      C2249   1.408       .  A
C2248      C2253   1.520       .  S
C2249      C2250   1.405       .  A
C2249      H2254   1.083       .  S
C2250      C2251   1.423       .  A
C2251      C2252   1.407       .  A
C2251      C2255   1.521       .  S
C2252      H2256   1.083       .  S
C2253      F2266   1.384       .  S
C2253      F2267   1.382       .  S
C2253      F2268   1.383       .  S
C2255      F2263   1.385       .  S
C2255      F2264   1.382       .  S
C2255      F2265   1.382       .  S
C2269      C2270   1.402       .  A
C2269      C2274   1.410       .  A
C2269      H2279   1.083       .  S
C2270      C2275   1.484       .  S
C2270      C2271   1.415       .  A
C2271      C2272   1.402       .  A
C2271      C2276   1.520       .  S
C2272      C2273   1.404       .  A
C2272      H2277   1.083       .  S
C2273      C2274   1.423       .  A
C2274      C2278   1.520       .  S
C2275      C2280   1.417       .  A
C2275      C2284   1.401       .  A
C2276      F2292   1.381       .  S
C2276      F2293   1.382       .  S
C2276      F2294   1.384       .  S
C2278      F2289   1.385       .  S
C2278      F2290   1.382       .  S
C2278      F2291   1.384       .  S
C2280      C2281   1.409       .  A
C2280      C2285   1.519       .  S
C2281      C2282   1.403       .  A
C2281      H2286   1.083       .  S
C2282      C2283   1.415       .  A
C2283      C2284   1.405       .  A
C2283      C2287   1.519       .  S
C2284      H2288   1.083       .  S
C2285      F2298   1.384       .  S
C2285      F2299   1.382       .  S
C2285      F2300   1.383       .  S
C2287      F2295   1.384       .  S
C2287      F2296   1.382       .  S
C2287      F2297   1.383       .  S
C2301      C2302   1.399       .  A
C2301      C2306   1.408       .  A
C2301      H2311   1.083       .  S
C2302      C2307   1.483       .  S
C2302      C2303   1.413       .  A
C2303      C2304   1.406       .  A
C2303      C2308   1.521       .  S
C2304      C2305   1.410       .  A
C2304      H2309   1.082   1_545  S
C2305      C2306   1.427       .  A
C2306      C2310   1.521       .  S
C2307      C2312   1.417       .  A
C2307      C2316   1.399       .  A
C2308      F2324   1.382       .  S
C2308      F2325   1.381       .  S
C2308      F2326   1.385       .  S
C2310      F2321   1.385       .  S
C2310      F2322   1.384       .  S
C2310      F2323   1.382       .  S
C2312      C2313   1.410       .  A
C2312      C2317   1.517       .  S
C2313      C2314   1.403       .  A
C2313      H2318   1.083       .  S
C2314      C2315   1.416       .  A
C2315      C2316   1.402       .  A
C2315      C2319   1.516       .  S
C2316      H2320   1.083       .  S
C2317      F2330   1.385       .  S
C2317      F2331   1.382       .  S
C2317      F2332   1.382       .  S
C2319      F2327   1.385       .  S
C2319      F2328   1.383       .  S
C2319      F2329   1.381       .  S
C2333      C2334   1.404       .  A
C2333      C2338   1.409       .  A
C2333      H2343   1.083       .  S
C2334      C2339   1.484       .  S
C2334      C2335   1.415       .  A
C2335      C2336   1.404       .  A
C2335      C2340   1.521       .  S
C2336      C2337   1.405       .  A
C2336      H2341   1.083       .  S
C2337      C2338   1.419       .  A
C2338      C2342   1.520       .  S
C2339      C2344   1.416       .  A
C2339      C2348   1.401       .  A
C2340      F2356   1.382       .  S
C2340      F2357   1.383   1_565  S
C2340      F2358   1.384   1_565  S
C2342      F2353   1.385       .  S
C2342      F2354   1.383       .  S
C2342      F2355   1.383       .  S
C2344      C2345   1.406       .  A
C2344      C2349   1.518       .  S
C2345      C2346   1.404       .  A
C2345      H2350   1.082       .  S
C2346      C2347   1.418       .  A
C2347      C2348   1.405       .  A
C2347      C2351   1.519       .  S
C2348      H2352   1.083       .  S
C2349      F2362   1.385   1_565  S
C2349      F2363   1.381       .  S
C2349      F2364   1.382   1_565  S
C2351      F2359   1.380       .  S
C2351      F2360   1.384       .  S
C2351      F2361   1.385       .  S
C2365      C2366   1.402       .  A
C2365      C2370   1.409       .  A
C2365      H2375   1.082       .  S
C2366      C2371   1.483       .  S
C2366      C2367   1.412       .  A
C2367      C2368   1.404   1_655  A
C2367      C2372   1.519       .  S
C2368      C2369   1.405       .  A
C2368      H2373   1.083       .  S
C2369      C2370   1.421   1_455  A
C2370      C2374   1.519       .  S
C2371      C2376   1.415       .  A
C2371      C2380   1.402       .  A
C2372      F2388   1.382       .  S
C2372      F2389   1.381       .  S
C2372      F2390   1.385   1_655  S
C2374      F2385   1.383       .  S
C2374      F2386   1.385       .  S
C2374      F2387   1.383   1_655  S
C2376      C2377   1.405       .  A
C2376      C2381   1.520       .  S
C2377      C2378   1.405       .  A
C2377      H2382   1.084       .  S
C2378      C2379   1.419       .  A
C2379      C2380   1.408       .  A
C2379      C2383   1.519       .  S
C2380      H2384   1.083       .  S
C2381      F2394   1.385       .  S
C2381      F2395   1.383       .  S
C2381      F2396   1.382       .  S
C2383      F2391   1.382       .  S
C2383      F2392   1.383       .  S
C2383      F2393   1.385       .  S
C2397      C2398   1.399       .  A
C2397      C2402   1.404       .  A
C2397      H2407   1.083       .  S
C2398      C2403   1.476       .  S
C2398      C2399   1.414       .  A
C2399      C2400   1.405       .  A
C2399      C2404   1.520       .  S
C2400      C2401   1.404       .  A
C2400      H2405   1.083       .  S
C2401      C2402   1.421       .  A
C2402      C2406   1.520       .  S
C2403      C2408   1.414       .  A
C2403      C2412   1.402       .  A
C2404      F2420   1.382       .  S
C2404      F2421   1.382       .  S
C2404      F2422   1.384       .  S
C2406      F2417   1.385       .  S
C2406      F2418   1.383       .  S
C2406      F2419   1.383       .  S
C2408      C2409   1.403       .  A
C2408      C2413   1.519       .  S
C2409      C2410   1.402       .  A
C2409      H2414   1.084       .  S
C2410      C2411   1.416       .  A
C2411      C2412   1.404       .  A
C2411      C2415   1.521       .  S
C2412      H2416   1.083       .  S
C2413      F2426   1.384       .  S
C2413      F2427   1.383       .  S
C2413      F2428   1.381       .  S
C2415      F2423   1.383       .  S
C2415      F2424   1.383       .  S
C2415      F2425   1.385       .  S
C2429      C2430   1.401       .  A
C2429      C2434   1.405       .  A
C2429      H2439   1.083       .  S
C2430      C2435   1.481       .  S
C2430      C2431   1.416       .  A
C2431      C2432   1.406       .  A
C2431      C2436   1.519       .  S
C2432      C2433   1.403       .  A
C2432      H2437   1.083       .  S
C2433      C2434   1.416       .  A
C2434      C2438   1.519       .  S
C2435      C2440   1.414       .  A
C2435      C2444   1.400       .  A
C2436      F2452   1.382       .  S
C2436      F2453   1.382       .  S
C2436      F2454   1.385       .  S
C2438      F2449   1.384       .  S
C2438      F2450   1.382       .  S
C2438      F2451   1.384       .  S
C2440      C2441   1.405       .  A
C2440      C2445   1.520       .  S
C2441      C2442   1.405       .  A
C2441      H2446   1.083       .  S
C2442      C2443   1.423       .  A
C2443      C2444   1.407       .  A
C2443      C2447   1.521       .  S
C2444      H2448   1.083       .  S
C2445      F2458   1.384       .  S
C2445      F2459   1.382       .  S
C2445      F2460   1.382       .  S
C2447      F2455   1.381       .  S
C2447      F2456   1.383       .  S
C2447      F2457   1.385       .  S
C2461      C2462   1.402       .  A
C2461      C2466   1.408       .  A
C2461      H2471   1.083       .  S
C2462      C2467   1.482       .  S
C2462      C2463   1.415       .  A
C2463      C2464   1.406       .  A
C2463      C2468   1.521       .  S
C2464      C2465   1.406       .  A
C2464      H2469   1.083       .  S
C2465      C2466   1.418       .  A
C2466      C2470   1.519       .  S
C2467      C2472   1.413       .  A
C2467      C2476   1.404       .  A
C2468      F2484   1.382       .  S
C2468      F2485   1.382       .  S
C2468      F2486   1.384       .  S
C2470      F2481   1.383       .  S
C2470      F2482   1.384       .  S
C2470      F2483   1.384       .  S
C2472      C2473   1.403       .  A
C2472      C2477   1.520       .  S
C2473      C2474   1.405       .  A
C2473      H2478   1.084       .  S
C2474      C2475   1.418       .  A
C2475      C2476   1.409       .  A
C2475      C2479   1.521       .  S
C2476      H2480   1.083       .  S
C2477      F2490   1.385       .  S
C2477      F2491   1.382       .  S
C2477      F2492   1.382       .  S
C2479      F2487   1.383       .  S
C2479      F2488   1.382       .  S
C2479      F2489   1.385       .  S
C2493      C2494   1.401       .  A
C2493      C2498   1.411       .  A
C2493      H2503   1.083       .  S
C2494      C2499   1.490       .  S
C2494      C2495   1.413       .  A
C2495      C2496   1.407       .  A
C2495      C2500   1.519       .  S
C2496      C2497   1.411       .  A
C2496      H2501   1.081       .  S
C2497      C2498   1.427       .  A
C2498      C2502   1.520       .  S
C2499      C2504   1.417       .  A
C2499      C2508   1.403       .  A
C2500      F2516   1.382       .  S
C2500      F2517   1.383       .  S
C2500      F2518   1.383       .  S
C2502      F2513   1.385       .  S
C2502      F2514   1.384       .  S
C2502      F2515   1.383       .  S
C2504      C2505   1.408       .  A
C2504      C2509   1.519       .  S
C2505      C2506   1.401       .  A
C2505      H2510   1.083       .  S
C2506      C2507   1.417       .  A
C2507      C2508   1.411       .  A
C2507      C2511   1.517   1_565  S
C2508      H2512   1.083       .  S
C2509      F2522   1.384       .  S
C2509      F2523   1.382       .  S
C2509      F2524   1.382       .  S
C2511      F2519   1.385       .  S
C2511      F2520   1.383       .  S
C2511      F2521   1.382       .  S
C2525      C2526   1.400       .  A
C2525      C2530   1.407       .  A
C2525      H2535   1.083       .  S
C2526      C2531   1.484       .  S
C2526      C2527   1.414       .  A
C2527      C2528   1.407       .  A
C2527      C2532   1.519       .  S
C2528      C2529   1.406       .  A
C2528      H2533   1.082       .  S
C2529      C2530   1.426       .  A
C2530      C2534   1.522       .  S
C2531      C2536   1.414       .  A
C2531      C2540   1.400       .  A
C2532      F2548   1.382       .  S
C2532      F2549   1.382       .  S
C2532      F2550   1.384       .  S
C2534      F2545   1.383       .  S
C2534      F2546   1.385       .  S
C2534      F2547   1.383   1_455  S
C2536      C2537   1.406       .  A
C2536      C2541   1.519       .  S
C2537      C2538   1.406       .  A
C2537      H2542   1.083       .  S
C2538      C2539   1.424       .  A
C2539      C2540   1.408       .  A
C2539      C2543   1.521       .  S
C2540      H2544   1.083       .  S
C2541      F2554   1.384       .  S
C2541      F2555   1.382       .  S
C2541      F2556   1.380       .  S
C2543      F2551   1.385       .  S
C2543      F2552   1.383       .  S
C2543      F2553   1.382       .  S
C2557      C2558   1.402       .  A
C2557      C2562   1.411       .  A
C2557      H2567   1.083       .  S
C2558      C2563   1.489       .  S
C2558      C2559   1.412       .  A
C2559      C2560   1.405       .  A
C2559      C2564   1.520       .  S
C2560      C2561   1.411       .  A
C2560      H2565   1.082       .  S
C2561      C2562   1.423       .  A
C2562      C2566   1.517       .  S
C2563      C2568   1.417       .  A
C2563      C2572   1.402       .  A
C2564      F2580   1.382       .  S
C2564      F2581   1.382       .  S
C2564      F2582   1.384       .  S
C2566      F2577   1.385       .  S
C2566      F2578   1.383       .  S
C2566      F2579   1.381       .  S
C2568      C2569   1.407       .  A
C2568      C2573   1.521       .  S
C2569      C2570   1.404       .  A
C2569      H2574   1.083       .  S
C2570      C2571   1.423       .  A
C2571      C2572   1.411       .  A
C2571      C2575   1.519       .  S
C2572      H2576   1.083       .  S
C2573      F2586   1.384       .  S
C2573      F2587   1.382       .  S
C2573      F2588   1.383       .  S
C2575      F2583   1.383       .  S
C2575      F2584   1.383       .  S
C2575      F2585   1.385       .  S
C2589      C2590   1.400       .  A
C2589      C2594   1.406       .  A
C2589      H2599   1.083       .  S
C2590      C2595   1.483       .  S
C2590      C2591   1.415       .  A
C2591      C2592   1.408       .  A
C2591      C2596   1.519       .  S
C2592      C2593   1.405       .  A
C2592      H2597   1.083       .  S
C2593      C2594   1.420       .  A
C2594      C2598   1.519       .  S
C2595      C2600   1.415       .  A
C2595      C2604   1.398       .  A
C2596      F2612   1.382       .  S
C2596      F2613   1.382       .  S
C2596      F2614   1.385       .  S
C2598      F2609   1.381       .  S
C2598      F2610   1.385       .  S
C2598      F2611   1.383       .  S
C2600      C2601   1.408       .  A
C2600      C2605   1.520       .  S
C2601      C2602   1.406       .  A
C2601      H2606   1.083       .  S
C2602      C2603   1.426       .  A
C2603      C2604   1.407       .  A
C2603      C2607   1.522       .  S
C2604      H2608   1.083       .  S
C2605      F2618   1.384       .  S
C2605      F2619   1.382       .  S
C2605      F2620   1.382       .  S
C2607      F2615   1.385       .  S
C2607      F2616   1.384       .  S
C2607      F2617   1.383       .  S
C2621      C2622   1.402       .  A
C2621      C2626   1.405       .  A
C2621      H2631   1.084       .  S
C2622      C2627   1.479   1_545  S
C2622      C2623   1.417       .  A
C2623      C2624   1.404       .  A
C2623      C2628   1.519       .  S
C2624      C2625   1.404       .  A
C2624      H2629   1.085       .  S
C2625      C2626   1.419       .  A
C2626      C2630   1.519       .  S
C2627      C2632   1.412       .  A
C2627      C2636   1.401       .  A
C2628      F2644   1.383       .  S
C2628      F2645   1.381   1_545  S
C2628      F2646   1.383       .  S
C2630      F2641   1.385       .  S
C2630      F2642   1.383       .  S
C2630      F2643   1.383       .  S
C2632      C2633   1.405       .  A
C2632      C2637   1.517       .  S
C2633      C2634   1.405       .  A
C2633      H2638   1.083       .  S
C2634      C2635   1.419       .  A
C2635      C2636   1.406       .  A
C2635      C2639   1.519       .  S
C2636      H2640   1.083   1_565  S
C2637      F2650   1.384       .  S
C2637      F2651   1.382       .  S
C2637      F2652   1.383       .  S
C2639      F2647   1.383       .  S
C2639      F2648   1.382       .  S
C2639      F2649   1.385       .  S
C2653      C2654   1.401       .  A
C2653      C2658   1.406       .  A
C2653      H2663   1.083       .  S
C2654      C2659   1.485       .  S
C2654      C2655   1.417       .  A
C2655      C2656   1.407       .  A
C2655      C2660   1.520       .  S
C2656      C2657   1.404       .  A
C2656      H2661   1.083       .  S
C2657      C2658   1.422       .  A
C2658      C2662   1.521       .  S
C2659      C2664   1.416       .  A
C2659      C2668   1.402       .  A
C2660      F2676   1.382       .  S
C2660      F2677   1.382       .  S
C2660      F2678   1.385       .  S
C2662      F2673   1.384       .  S
C2662      F2674   1.383       .  S
C2662      F2675   1.383       .  S
C2664      C2665   1.406       .  A
C2664      C2669   1.519       .  S
C2665      C2666   1.404       .  A
C2665      H2670   1.083       .  S
C2666      C2667   1.418       .  A
C2667      C2668   1.407       .  A
C2667      C2671   1.519       .  S
C2668      H2672   1.083       .  S
C2669      F2682   1.385       .  S
C2669      F2683   1.381       .  S
C2669      F2684   1.382       .  S
C2671      F2679   1.382       .  S
C2671      F2680   1.383       .  S
C2671      F2681   1.385       .  S
C2685      C2686   1.403       .  A
C2685      C2690   1.410       .  A
C2685      H2695   1.083       .  S
C2686      C2691   1.488       .  S
C2686      C2687   1.415   1_655  A
C2687      C2688   1.405       .  A
C2687      C2692   1.520       .  S
C2688      C2689   1.405   1_455  A
C2688      H2693   1.083       .  S
C2689      C2690   1.420       .  A
C2690      C2694   1.519       .  S
C2691      C2696   1.418       .  A
C2691      C2700   1.401       .  A
C2692      F2708   1.382       .  S
C2692      F2709   1.382       .  S
C2692      F2710   1.385       .  S
C2694      F2705   1.383       .  S
C2694      F2706   1.385       .  S
C2694      F2707   1.383       .  S
C2696      C2697   1.410       .  A
C2696      C2701   1.519   1_655  S
C2697      C2698   1.403       .  A
C2697      H2702   1.084   1_655  S
C2698      C2699   1.417       .  A
C2699      C2700   1.405       .  A
C2699      C2703   1.516       .  S
C2700      H2704   1.085       .  S
C2701      F2714   1.385       .  S
C2701      F2715   1.382   1_455  S
C2701      F2716   1.382       .  S
C2703      F2711   1.381       .  S
C2703      F2712   1.380       .  S
C2703      F2713   1.383       .  S
C2717      C2718   1.395       .  A
C2717      C2722   1.399       .  A
C2717      H2727   1.084       .  S
C2718      C2723   1.477       .  S
C2718      C2719   1.414       .  A
C2719      C2720   1.410       .  A
C2719      C2724   1.518       .  S
C2720      C2721   1.407       .  A
C2720      H2725   1.083       .  S
C2721      C2722   1.426       .  A
C2722      C2726   1.520       .  S
C2723      C2728   1.415       .  A
C2723      C2732   1.398       .  A
C2724      F2740   1.383       .  S
C2724      F2741   1.381       .  S
C2724      F2742   1.384       .  S
C2726      F2737   1.383       .  S
C2726      F2738   1.385       .  S
C2726      F2739   1.381       .  S
C2728      C2729   1.407       .  A
C2728      C2733   1.519       .  S
C2729      C2730   1.404       .  A
C2729      H2734   1.083       .  S
C2730      C2731   1.421       .  A
C2731      C2732   1.402       .  A
C2731      C2735   1.521       .  S
C2732      H2736   1.084       .  S
C2733      F2746   1.384       .  S
C2733      F2747   1.382       .  S
C2733      F2748   1.381       .  S
C2735      F2743   1.385       .  S
C2735      F2744   1.384       .  S
C2735      F2745   1.382       .  S
C2749      C2750   1.398       .  A
C2749      C2754   1.406       .  A
C2749      H2759   1.083       .  S
C2750      C2755   1.478       .  S
C2750      C2751   1.412       .  A
C2751      C2752   1.405       .  A
C2751      C2756   1.521       .  S
C2752      C2753   1.409       .  A
C2752      H2757   1.082       .  S
C2753      C2754   1.426       .  A
C2754      C2758   1.521       .  S
C2755      C2760   1.415       .  A
C2755      C2764   1.403       .  A
C2756      F2772   1.382       .  S
C2756      F2773   1.381       .  S
C2756      F2774   1.384       .  S
C2758      F2769   1.383       .  S
C2758      F2770   1.385       .  S
C2758      F2771   1.383       .  S
C2760      C2761   1.402       .  A
C2760      C2765   1.521       .  S
C2761      C2762   1.402       .  A
C2761      H2766   1.083       .  S
C2762      C2763   1.414       .  A
C2763      C2764   1.407       .  A
C2763      C2767   1.517       .  S
C2764      H2768   1.083       .  S
C2765      F2778   1.385       .  S
C2765      F2779   1.382       .  S
C2765      F2780   1.381       .  S
C2767      F2775   1.385       .  S
C2767      F2776   1.382       .  S
C2767      F2777   1.383       .  S
C2781      C2782   1.405       .  A
C2781      C2786   1.409       .  A
C2781      H2791   1.083       .  S
C2782      C2787   1.482       .  S
C2782      C2783   1.417       .  A
C2783      C2784   1.401       .  A
C2783      C2788   1.521       .  S
C2784      C2785   1.399       .  A
C2784      H2789   1.084       .  S
C2785      C2786   1.411       .  A
C2786      C2790   1.513       .  S
C2787      C2792   1.409       .  A
C2787      C2796   1.398       .  A
C2788      F2804   1.381       .  S
C2788      F2805   1.382       .  S
C2788      F2806   1.385       .  S
C2790      F2801   1.384       .  S
C2790      F2802   1.383       .  S
C2790      F2803   1.382   1_554  S
C2792      C2793   1.405       .  A
C2792      C2797   1.520       .  S
C2793      C2794   1.414       .  A
C2793      H2798   1.081       .  S
C2794      C2795   1.431       .  A
C2795      C2796   1.410       .  A
C2795      C2799   1.521       .  S
C2796      H2800   1.083       .  S
C2797      F2810   1.384       .  S
C2797      F2811   1.382       .  S
C2797      F2812   1.383       .  S
C2799      F2807   1.383       .  S
C2799      F2808   1.382       .  S
C2799      F2809   1.385       .  S
C2813      C2814   1.398       .  A
C2813      C2818   1.404       .  A
C2813      H2823   1.083       .  S
C2814      C2819   1.477       .  S
C2814      C2815   1.414       .  A
C2815      C2816   1.404       .  A
C2815      C2820   1.519       .  S
C2816      C2817   1.403       .  A
C2816      H2821   1.082       .  S
C2817      C2818   1.422       .  A
C2818      C2822   1.520       .  S
C2819      C2824   1.412       .  A
C2819      C2828   1.398       .  A
C2820      F2836   1.382       .  S
C2820      F2837   1.383       .  S
C2820      F2838   1.384       .  S
C2822      F2833   1.382       .  S
C2822      F2834   1.385       .  S
C2822      F2835   1.383       .  S
C2824      C2825   1.403       .  A
C2824      C2829   1.520       .  S
C2825      C2826   1.409       .  A
C2825      H2830   1.083       .  S
C2826      C2827   1.422       .  A
C2827      C2828   1.404       .  A
C2827      C2831   1.518       .  S
C2828      H2832   1.083       .  S
C2829      F2842   1.385       .  S
C2829      F2843   1.382       .  S
C2829      F2844   1.382       .  S
C2831      F2839   1.384       .  S
C2831      F2840   1.382       .  S
C2831      F2841   1.383       .  S
C2845      C2846   1.399       .  A
C2845      C2850   1.399       .  A
C2845      H2855   1.085       .  S
C2846      C2851   1.475       .  S
C2846      C2847   1.416       .  A
C2847      C2848   1.406       .  A
C2847      C2852   1.521       .  S
C2848      C2849   1.404       .  A
C2848      H2853   1.083       .  S
C2849      C2850   1.415       .  A
C2850      C2854   1.516       .  S
C2851      C2856   1.412       .  A
C2851      C2860   1.398       .  A
C2852      F2868   1.382       .  S
C2852      F2869   1.383       .  S
C2852      F2870   1.384       .  S
C2854      F2865   1.384       .  S
C2854      F2866   1.381       .  S
C2854      F2867   1.382       .  S
C2856      C2857   1.402       .  A
C2856      C2861   1.522       .  S
C2857      C2858   1.411       .  A
C2857      H2862   1.083       .  S
C2858      C2859   1.422       .  A
C2859      C2860   1.404       .  A
C2859      C2863   1.514       .  S
C2860      H2864   1.083       .  S
C2861      F2874   1.385       .  S
C2861      F2875   1.381       .  S
C2861      F2876   1.383       .  S
C2863      F2871   1.379       .  S
C2863      F2872   1.375       .  S
C2863      F2873   1.385       .  S
C2877      C2878   1.399       .  A
C2877      C2882   1.406       .  A
C2877      H2887   1.083       .  S
C2878      C2883   1.479       .  S
C2878      C2879   1.413   1_554  A
C2879      C2880   1.404       .  A
C2879      C2884   1.520       .  S
C2880      C2881   1.407   1_556  A
C2880      H2885   1.083       .  S
C2881      C2882   1.424       .  A
C2882      C2886   1.521       .  S
C2883      C2888   1.416       .  A
C2883      C2892   1.401       .  A
C2884      F2900   1.382       .  S
C2884      F2901   1.382       .  S
C2884      F2902   1.385       .  S
C2886      F2897   1.383       .  S
C2886      F2898   1.385       .  S
C2886      F2899   1.384       .  S
C2888      C2889   1.405       .  A
C2888      C2893   1.521       .  S
C2889      C2890   1.404       .  A
C2889      H2894   1.084       .  S
C2890      C2891   1.414       .  A
C2891      C2892   1.404       .  A
C2891      C2895   1.515       .  S
C2892      H2896   1.083       .  S
C2893      F2906   1.385       .  S
C2893      F2907   1.382       .  S
C2893      F2908   1.382   1_554  S
C2895      F2903   1.384       .  S
C2895      F2904   1.384       .  S
C2895      F2905   1.382       .  S
C2909      C2910   1.399       .  A
C2909      C2914   1.404       .  A
C2909      H2919   1.083       .  S
C2910      C2915   1.475       .  S
C2910      C2911   1.413       .  A
C2911      C2912   1.404       .  A
C2911      C2916   1.520       .  S
C2912      C2913   1.405       .  A
C2912      H2917   1.083       .  S
C2913      C2914   1.421       .  A
C2914      C2918   1.521       .  S
C2915      C2920   1.411       .  A
C2915      C2924   1.398       .  A
C2916      F2932   1.382       .  S
C2916      F2933   1.382       .  S
C2916      F2934   1.384       .  S
C2918      F2929   1.381       .  S
C2918      F2930   1.385       .  S
C2918      F2931   1.383       .  S
C2920      C2921   1.401       .  A
C2920      C2925   1.521       .  S
C2921      C2922   1.408       .  A
C2921      H2926   1.082       .  S
C2922      C2923   1.423       .  A
C2923      C2924   1.406       .  A
C2923      C2927   1.516       .  S
C2924      H2928   1.083       .  S
C2925      F2938   1.385       .  S
C2925      F2939   1.382       .  S
C2925      F2940   1.382       .  S
C2927      F2935   1.385       .  S
C2927      F2936   1.383       .  S
C2927      F2937   1.382   1_554  S
C2941      C2942   1.397       .  A
C2941      C2946   1.403       .  A
C2941      H2951   1.084       .  S
C2942      C2947   1.482       .  S
C2942      C2943   1.415       .  A
C2943      C2944   1.408       .  A
C2943      C2948   1.518       .  S
C2944      C2945   1.404       .  A
C2944      H2949   1.083       .  S
C2945      C2946   1.425       .  A
C2946      C2950   1.521       .  S
C2947      C2952   1.415       .  A
C2947      C2956   1.402       .  A
C2948      F2964   1.382       .  S
C2948      F2965   1.382       .  S
C2948      F2966   1.384       .  S
C2950      F2961   1.380       .  S
C2950      F2962   1.382       .  S
C2950      F2963   1.386       .  S
C2952      C2953   1.403       .  A
C2952      C2957   1.521       .  S
C2953      C2954   1.404       .  A
C2953      H2958   1.083       .  S
C2954      C2955   1.420       .  A
C2955      C2956   1.408       .  A
C2955      C2959   1.520       .  S
C2956      H2960   1.083       .  S
C2957      F2970   1.384       .  S
C2957      F2971   1.382       .  S
C2957      F2972   1.382       .  S
C2959      F2967   1.384       .  S
C2959      F2968   1.383       .  S
C2959      F2969   1.384       .  S
C2973      C2974   1.403       .  A
C2973      C2978   1.408       .  A
C2973      H2983   1.083       .  S
C2974      C2979   1.478       .  S
C2974      C2975   1.414       .  A
C2975      C2976   1.400       .  A
C2975      C2980   1.523       .  S
C2976      C2977   1.406       .  A
C2976      H2981   1.083       .  S
C2977      C2978   1.418       .  A
C2978      C2982   1.518       .  S
C2979      C2984   1.414       .  A
C2979      C2988   1.399       .  A
C2980      F2996   1.382       .  S
C2980      F2997   1.382       .  S
C2980      F2998   1.385       .  S
C2982      F2993   1.385       .  S
C2982      F2994   1.382       .  S
C2982      F2995   1.384       .  S
C2984      C2985   1.406       .  A
C2984      C2989   1.519       .  S
C2985      C2986   1.404       .  A
C2985      H2990   1.083       .  S
C2986      C2987   1.420       .  A
C2987      C2988   1.403       .  A
C2987      C2991   1.522       .  S
C2988      H2992   1.083       .  S
C2989      F3002   1.384       .  S
C2989      F3003   1.382       .  S
C2989      F3004   1.382       .  S
C2991      F2999   1.382       .  S
C2991      F3000   1.384       .  S
C2991      F3001   1.385   1_455  S
C3005      C3006   1.405       .  A
C3005      C3010   1.410       .  A
C3005      H3015   1.083       .  S
C3006      C3011   1.494       .  S
C3006      C3007   1.422       .  A
C3007      C3008   1.406       .  A
C3007      C3012   1.518       .  S
C3008      C3009   1.398       .  A
C3008      H3013   1.083       .  S
C3009      C3010   1.412       .  A
C3010      C3014   1.515       .  S
C3011      C3016   1.414       .  A
C3011      C3020   1.399       .  A
C3012      F3028   1.381       .  S
C3012      F3029   1.379       .  S
C3012      F3030   1.385       .  S
C3014      F3025   1.383       .  S
C3014      F3026   1.384       .  S
C3014      F3027   1.383       .  S
C3016      C3017   1.413       .  A
C3016      C3021   1.519       .  S
C3017      C3018   1.413       .  A
C3017      H3022   1.082       .  S
C3018      C3019   1.430       .  A
C3019      C3020   1.410       .  A
C3019      C3023   1.520       .  S
C3020      H3024   1.083       .  S
C3021      F3034   1.385       .  S
C3021      F3035   1.382       .  S
C3021      F3036   1.382       .  S
C3023      F3031   1.385       .  S
C3023      F3032   1.383       .  S
C3023      F3033   1.382       .  S
C3037      C3038   1.394       .  A
C3037      C3042   1.405       .  A
C3037      H3047   1.083       .  S
C3038      C3043   1.475       .  S
C3038      C3039   1.412       .  A
C3039      C3040   1.404       .  A
C3039      C3044   1.521       .  S
C3040      C3041   1.409       .  A
C3040      H3045   1.082       .  S
C3041      C3042   1.432       .  A
C3042      C3046   1.523       .  S
C3043      C3048   1.415       .  A
C3043      C3052   1.399       .  A
C3044      F3060   1.382       .  S
C3044      F3061   1.381       .  S
C3044      F3062   1.384       .  S
C3046      F3057   1.383       .  S
C3046      F3058   1.385       .  S
C3046      F3059   1.383       .  S
C3048      C3049   1.405       .  A
C3048      C3053   1.519       .  S
C3049      C3050   1.402       .  A
C3049      H3054   1.083       .  S
C3050      C3051   1.416       .  A
C3051      C3052   1.401       .  A
C3051      C3055   1.515       .  S
C3052      H3056   1.084       .  S
C3053      F3066   1.385       .  S
C3053      F3067   1.382       .  S
C3053      F3068   1.382       .  S
C3055      F3063   1.384       .  S
C3055      F3064   1.385       .  S
C3055      F3065   1.379       .  S
C3069      C3070   1.400       .  A
C3069      C3074   1.405       .  A
C3069      H3079   1.083   1_655  S
C3070      C3075   1.474       .  S
C3070      C3071   1.413       .  A
C3071      C3072   1.402       .  A
C3071      C3076   1.522       .  S
C3072      C3073   1.405       .  A
C3072      H3077   1.082       .  S
C3073      C3074   1.418       .  A
C3074      C3078   1.519       .  S
C3075      C3080   1.413   1_655  A
C3075      C3084   1.399       .  A
C3076      F3092   1.382       .  S
C3076      F3093   1.381       .  S
C3076      F3094   1.385       .  S
C3078      F3089   1.385   1_655  S
C3078      F3090   1.383       .  S
C3078      F3091   1.384       .  S
C3080      C3081   1.403       .  A
C3080      C3085   1.520       .  S
C3081      C3082   1.404       .  A
C3081      H3086   1.083       .  S
C3082      C3083   1.420       .  A
C3083      C3084   1.403   1_455  A
C3083      C3087   1.521       .  S
C3084      H3088   1.083       .  S
C3085      F3098   1.385       .  S
C3085      F3099   1.382       .  S
C3085      F3100   1.381   1_455  S
C3087      F3095   1.382       .  S
C3087      F3096   1.384       .  S
C3087      F3097   1.385   1_455  S
C3101      C3102   1.403       .  A
C3101      C3106   1.411       .  A
C3101      H3111   1.083       .  S
C3102      C3107   1.483       .  S
C3102      C3103   1.415       .  A
C3103      C3104   1.402       .  A
C3103      C3108   1.523       .  S
C3104      C3105   1.405       .  A
C3104      H3109   1.080       .  S
C3105      C3106   1.420       .  A
C3106      C3110   1.518       .  S
C3107      C3112   1.417       .  A
C3107      C3116   1.395       .  A
C3108      F3124   1.382       .  S
C3108      F3125   1.382       .  S
C3108      F3126   1.384       .  S
C3110      F3121   1.384       .  S
C3110      F3122   1.383       .  S
C3110      F3123   1.384       .  S
C3112      C3113   1.413       .  A
C3112      C3117   1.516       .  S
C3113      C3114   1.404       .  A
C3113      H3118   1.083       .  S
C3114      C3115   1.421       .  A
C3115      C3116   1.399       .  A
C3115      C3119   1.515       .  S
C3116      H3120   1.084       .  S
C3117      F3130   1.384       .  S
C3117      F3131   1.382       .  S
C3117      F3132   1.382       .  S
C3119      F3127   1.381       .  S
C3119      F3128   1.381       .  S
C3119      F3129   1.385       .  S
C3133      C3134   1.402       .  A
C3133      C3138   1.408       .  A
C3133      H3143   1.083       .  S
C3134      C3139   1.485       .  S
C3134      C3135   1.415       .  A
C3135      C3136   1.406       .  A
C3135      C3140   1.520       .  S
C3136      C3137   1.405       .  A
C3136      H3141   1.083       .  S
C3137      C3138   1.421       .  A
C3138      C3142   1.520       .  S
C3139      C3144   1.414       .  A
C3139      C3148   1.400       .  A
C3140      F3156   1.382       .  S
C3140      F3157   1.382       .  S
C3140      F3158   1.384       .  S
C3142      F3153   1.385       .  S
C3142      F3154   1.382       .  S
C3142      F3155   1.384       .  S
C3144      C3145   1.407       .  A
C3144      C3149   1.520       .  S
C3145      C3146   1.408       .  A
C3145      H3150   1.083       .  S
C3146      C3147   1.425       .  A
C3147      C3148   1.408       .  A
C3147      C3151   1.519       .  S
C3148      H3152   1.083       .  S
C3149      F3162   1.384       .  S
C3149      F3163   1.382       .  S
C3149      F3164   1.382       .  S
C3151      F3159   1.382       .  S
C3151      F3160   1.384       .  S
C3151      F3161   1.385       .  S
C3165      C3166   1.404       .  A
C3165      C3170   1.408       .  A
C3165      H3175   1.083       .  S
C3166      C3171   1.486       .  S
C3166      C3167   1.417       .  A
C3167      C3168   1.406       .  A
C3167      C3172   1.519       .  S
C3168      C3169   1.402       .  A
C3168      H3173   1.083       .  S
C3169      C3170   1.415       .  A
C3170      C3174   1.515       .  S
C3171      C3176   1.416       .  A
C3171      C3180   1.401       .  A
C3172      F3188   1.381       .  S
C3172      F3189   1.383       .  S
C3172      F3190   1.385       .  S
C3174      F3185   1.385       .  S
C3174      F3186   1.377       .  S
C3174      F3187   1.383       .  S
C3176      C3177   1.407       .  A
C3176      C3181   1.519       .  S
C3177      C3178   1.404       .  A
C3177      H3182   1.083       .  S
C3178      C3179   1.420       .  A
C3179      C3180   1.406       .  A
C3179      C3183   1.518       .  S
C3180      H3184   1.083       .  S
C3181      F3194   1.385       .  S
C3181      F3195   1.382       .  S
C3181      F3196   1.383       .  S
C3183      F3191   1.379       .  S
C3183      F3192   1.384       .  S
C3183      F3193   1.385       .  S
C3197      C3198   1.399       .  A
C3197      C3202   1.407       .  A
C3197      H3207   1.083       .  S
C3198      C3203   1.481   1_565  S
C3198      C3199   1.413       .  A
C3199      C3200   1.406       .  A
C3199      C3204   1.521   1_565  S
C3200      C3201   1.409       .  A
C3200      H3205   1.083       .  S
C3201      C3202   1.420       .  A
C3202      C3206   1.514       .  S
C3203      C3208   1.413       .  A
C3203      C3212   1.400       .  A
C3204      F3220   1.383       .  S
C3204      F3221   1.382       .  S
C3204      F3222   1.384   1_545  S
C3206      F3217   1.382       .  S
C3206      F3218   1.385       .  S
C3206      F3219   1.383       .  S
C3208      C3209   1.401       .  A
C3208      C3213   1.520       .  S
C3209      C3210   1.407       .  A
C3209      H3214   1.083       .  S
C3210      C3211   1.423       .  A
C3211      C3212   1.408       .  A
C3211      C3215   1.516       .  S
C3212      H3216   1.083       .  S
C3213      F3226   1.385       .  S
C3213      F3227   1.382       .  S
C3213      F3228   1.382       .  S
C3215      F3223   1.385       .  S
C3215      F3224   1.378       .  S
C3215      F3225   1.382       .  S
C3229      C3230   1.401       .  A
C3229      C3234   1.405       .  A
C3229      H3239   1.083       .  S
C3230      C3235   1.480       .  S
C3230      C3231   1.415       .  A
C3231      C3232   1.405       .  A
C3231      C3236   1.520       .  S
C3232      C3233   1.404       .  A
C3232      H3237   1.083       .  S
C3233      C3234   1.418       .  A
C3234      C3238   1.519       .  S
C3235      C3240   1.414       .  A
C3235      C3244   1.398       .  A
C3236      F3252   1.382       .  S
C3236      F3253   1.382       .  S
C3236      F3254   1.385       .  S
C3238      F3249   1.385       .  S
C3238      F3250   1.384       .  S
C3238      F3251   1.382       .  S
C3240      C3241   1.406       .  A
C3240      C3245   1.520       .  S
C3241      C3242   1.407       .  A
C3241      H3246   1.082       .  S
C3242      C3243   1.424       .  A
C3243      C3244   1.405       .  A
C3243      C3247   1.519       .  S
C3244      H3248   1.083       .  S
C3245      F3258   1.385       .  S
C3245      F3259   1.382       .  S
C3245      F3260   1.382       .  S
C3247      F3255   1.384       .  S
C3247      F3256   1.382       .  S
C3247      F3257   1.385       .  S
C3261      C3262   1.398       .  A
C3261      C3266   1.402       .  A
C3261      H3271   1.084       .  S
C3262      C3267   1.481       .  S
C3262      C3263   1.415       .  A
C3263      C3264   1.408       .  A
C3263      C3268   1.517       .  S
C3264      C3265   1.403       .  A
C3264      H3269   1.083       .  S
C3265      C3266   1.420       .  A
C3266      C3270   1.518       .  S
C3267      C3272   1.413       .  A
C3267      C3276   1.401       .  A
C3268      F3284   1.382       .  S
C3268      F3285   1.382       .  S
C3268      F3286   1.385       .  S
C3270      F3281   1.385       .  S
C3270      F3282   1.382       .  S
C3270      F3283   1.381       .  S
C3272      C3273   1.404       .  A
C3272      C3277   1.522       .  S
C3273      C3274   1.408       .  A
C3273      H3278   1.083       .  S
C3274      C3275   1.422       .  A
C3275      C3276   1.409       .  A
C3275      C3279   1.518       .  S
C3276      H3280   1.083       .  S
C3277      F3290   1.385       .  S
C3277      F3291   1.382       .  S
C3277      F3292   1.382       .  S
C3279      F3287   1.383       .  S
C3279      F3288   1.383       .  S
C3279      F3289   1.385       .  S
C3293      C3294   1.404       .  A
C3293      C3298   1.409       .  A
C3293      H3303   1.084       .  S
C3294      C3299   1.496       .  S
C3294      C3295   1.419   1_655  A
C3295      C3296   1.410       .  A
C3295      C3300   1.520       .  S
C3296      C3297   1.405   1_455  A
C3296      H3301   1.083       .  S
C3297      C3298   1.419       .  A
C3298      C3302   1.517       .  S
C3299      C3304   1.417   1_655  A
C3299      C3308   1.403       .  A
C3300      F3316   1.381   1_455  S
C3300      F3317   1.382       .  S
C3300      F3318   1.385       .  S
C3302      F3313   1.384       .  S
C3302      F3314   1.381       .  S
C3302      F3315   1.381       .  S
C3304      C3305   1.410       .  A
C3304      C3309   1.520       .  S
C3305      C3306   1.410   1_455  A
C3305      H3310   1.083       .  S
C3306      C3307   1.420       .  A
C3307      C3308   1.411       .  A
C3307      C3311   1.509       .  S
C3308      H3312   1.083       .  S
C3309      F3322   1.385       .  S
C3309      F3323   1.381       .  S
C3309      F3324   1.382       .  S
C3311      F3319   1.381       .  S
C3311      F3320   1.383       .  S
C3311      F3321   1.385       .  S
C3325      C3326   1.402       .  A
C3325      C3330   1.405       .  A
C3325      H3335   1.083       .  S
C3326      C3331   1.484       .  S
C3326      C3327   1.416       .  A
C3327      C3328   1.408       .  A
C3327      C3332   1.519       .  S
C3328      C3329   1.402       .  A
C3328      H3333   1.083   1_565  S
C3329      C3330   1.414       .  A
C3330      C3334   1.516       .  S
C3331      C3336   1.415       .  A
C3331      C3340   1.400       .  A
C3332      F3348   1.382       .  S
C3332      F3349   1.382       .  S
C3332      F3350   1.384       .  S
C3334      F3345   1.385       .  S
C3334      F3346   1.380       .  S
C3334      F3347   1.383       .  S
C3336      C3337   1.405       .  A
C3336      C3341   1.520       .  S
C3337      C3338   1.407       .  A
C3337      H3342   1.083       .  S
C3338      C3339   1.421       .  A
C3339      C3340   1.407       .  A
C3339      C3343   1.518       .  S
C3340      H3344   1.083       .  S
C3341      F3354   1.385       .  S
C3341      F3355   1.381       .  S
C3341      F3356   1.382       .  S
C3343      F3351   1.381       .  S
C3343      F3352   1.383       .  S
C3343      F3353   1.384       .  S
C3357      C3358   1.400       .  A
C3357      C3362   1.405       .  A
C3357      H3367   1.084       .  S
C3358      C3363   1.483       .  S
C3358      C3359   1.414       .  A
C3359      C3360   1.408       .  A
C3359      C3364   1.519       .  S
C3360      C3361   1.408       .  A
C3360      H3365   1.083       .  S
C3361      C3362   1.420       .  A
C3362      C3366   1.517       .  S
C3363      C3368   1.414       .  A
C3363      C3372   1.400       .  A
C3364      F3380   1.382       .  S
C3364      F3381   1.381       .  S
C3364      F3382   1.385       .  S
C3366      F3377   1.382       .  S
C3366      F3378   1.385       .  S
C3366      F3379   1.383       .  S
C3368      C3369   1.407       .  A
C3368      C3373   1.521       .  S
C3369      C3370   1.410       .  A
C3369      H3374   1.083       .  S
C3370      C3371   1.425       .  A
C3371      C3372   1.408       .  A
C3371      C3375   1.521       .  S
C3372      H3376   1.083       .  S
C3373      F3386   1.385       .  S
C3373      F3387   1.382       .  S
C3373      F3388   1.382       .  S
C3375      F3383   1.384       .  S
C3375      F3384   1.384       .  S
C3375      F3385   1.383       .  S
C3389      C3390   1.400       .  A
C3389      C3394   1.407       .  A
C3389      H3399   1.083       .  S
C3390      C3395   1.485       .  S
C3390      C3391   1.414       .  A
C3391      C3392   1.407       .  A
C3391      C3396   1.520       .  S
C3392      C3393   1.409       .  A
C3392      H3397   1.083       .  S
C3393      C3394   1.419       .  A
C3394      C3398   1.513       .  S
C3395      C3400   1.415       .  A
C3395      C3404   1.400       .  A
C3396      F3412   1.382       .  S
C3396      F3413   1.382       .  S
C3396      F3414   1.385       .  S
C3398      F3409   1.380       .  S
C3398      F3410   1.385       .  S
C3398      F3411   1.383       .  S
C3400      C3401   1.408       .  A
C3400      C3405   1.520       .  S
C3401      C3402   1.406       .  A
C3401      H3406   1.083       .  S
C3402      C3403   1.422       .  A
C3403      C3404   1.408       .  A
C3403      C3407   1.521       .  S
C3404      H3408   1.083       .  S
C3405      F3418   1.384       .  S
C3405      F3419   1.382       .  S
C3405      F3420   1.382       .  S
C3407      F3415   1.384       .  S
C3407      F3416   1.384       .  S
C3407      F3417   1.382       .  S
