geometry optimzed in LAMMPS
_audit_creation_date              2020-11-30 
_audit_creation_method            'lammps2cif' 
_symmetry_space_group_name_H-M    'P1' 
_symmetry_Int_Tables_number       1 
_symmetry_cell_setting            triclinic 
loop_ 
_symmetry_equiv_pos_as_xyz 
  x,y,z 
_cell_length_a                    36.98785642 
_cell_length_b                    36.9841489041553 
_cell_length_c                    36.977774021152925 
_cell_angle_alpha                 90.08151789305631 
_cell_angle_beta                  90.0530066903177 
_cell_angle_gamma                 90.04813979271711 
loop_ 
_atom_site_label 
_atom_site_type_symbol 
_atom_site_fract_x 
_atom_site_fract_y 
_atom_site_fract_z 
_atom_site_charge 
C1          C  0.15029485  0.74315985  0.96975282     0.82200
N2          N  0.16884476  0.74291162  0.00163390    -0.76100
C3          C  0.15052610  0.74386661  0.03360057     0.84600
N4          N  0.11385518  0.74500495  0.03352424    -0.76100
C5          C  0.09540048  0.74524814  0.00181903     0.84700
N6          N  0.11361544  0.74430673  0.97001078    -0.77800
C7          C  0.41365619  0.59059627  0.03371585     0.82200
N8          N  0.41924030  0.55427872  0.03297872    -0.76100
C9          C  0.42327175  0.53709014  0.00060404     0.84600
N10         N  0.41999432  0.55602217  0.96922565    -0.76100
C11         C  0.41442037  0.59228697  0.97040658     0.84700
N12         N  0.41104500  0.60915479  0.00251698    -0.77800
C13         C  0.86119576  0.22605091  0.03290416     0.82200
N14         N  0.84278651  0.22679289  0.00094647    -0.76100
C15         C  0.86123826  0.22640961  0.96904718     0.84600
N16         N  0.89789946  0.22533083  0.96926143    -0.76100
C17         C  0.91624069  0.22459887  0.00101668     0.84700
N18         N  0.89789890  0.22497809  0.03278256    -0.77800
C19         C  0.59953190  0.37846751  0.97024454     0.82200
N20         N  0.60039792  0.36035116  0.00179277    -0.76100
C21         C  0.59558434  0.37772786  0.03345367     0.84600
N22         N  0.59032511  0.41408273  0.03381530    -0.76100
C23         C  0.58879128  0.43254325  0.00199971     0.84700
N24         N  0.59425245  0.41480999  0.97016353    -0.77800
C25         C  0.76455698  0.95593422  0.14695548     0.82200
N26         N  0.76471235  0.98821555  0.16481542    -0.76100
C27         C  0.76483323  0.01975838  0.14576866     0.84600
N28         N  0.76475122  0.01885741  0.10908598    -0.76100
C29         C  0.76457854  0.98675580  0.09133115     0.84700
N30         N  0.76447652  0.95537134  0.11025349    -0.77800
C31         C  0.61349560  0.01982150  0.40805349     0.82200
N32         N  0.63189497  0.98843603  0.40684679    -0.76100
C33         C  0.61480047  0.95658696  0.41131356     0.84600
N34         N  0.57846343  0.95587760  0.41657023    -0.76100
C35         C  0.55971621  0.98749840  0.41847526     0.84700
N36         N  0.57714936  0.01953513  0.41332550    -0.77800
C37         C  0.24649216  0.01505508  0.85411627     0.82200
N38         N  0.24692165  0.98269600  0.83639852    -0.76100
C39         C  0.24736025  0.95124288  0.85558069     0.84600
N40         N  0.24739998  0.95228959  0.89223495    -0.76100
C41         C  0.24699225  0.98442847  0.90987636     0.84700
N42         N  0.24654481  0.01576623  0.89084187    -0.77800
C43         C  0.39788472  0.95175092  0.59524559     0.82200
N44         N  0.37970746  0.98328384  0.59513721    -0.76100
C45         C  0.39701723  0.01478072  0.58921974     0.84600
N46         N  0.43335427  0.01498601  0.58383642    -0.76100
C47         C  0.45184935  0.98315383  0.58327138     0.84700
N48         N  0.43419138  0.95152867  0.58984926    -0.77800
C49         C  0.85938935  0.74503174  0.03469404     0.82200
N50         N  0.89607935  0.74535365  0.03443319    -0.76100
C51         C  0.91434532  0.74517855  0.00265505     0.84600
N52         N  0.89593233  0.74468597  0.97092485    -0.76100
C53         C  0.85923755  0.74436416  0.97075670     0.84700
N54         N  0.84084404  0.74454482  0.00275302    -0.77800
C55         C  0.59941732  0.59747036  0.03258819     0.82200
N56         N  0.60067587  0.61496359  0.00068829    -0.76100
C57         C  0.59607199  0.59694327  0.96932873     0.84600
N58         N  0.59069599  0.56060727  0.96964575    -0.76100
C59         C  0.58884070  0.54278116  0.00179006     0.84700
N60         N  0.59402316  0.56114062  0.03332535    -0.77800
C61         C  0.15221481  0.22361332  0.96530467     0.82200
N62         N  0.11549828  0.22322931  0.96562959    -0.76100
C63         C  0.09729294  0.22392838  0.99746205     0.84600
N64         N  0.11577104  0.22502598  0.02911344    -0.76100
C65         C  0.15243794  0.22543734  0.02921338     0.84700
N66         N  0.17079742  0.22472561  0.99721082    -0.77800
C67         C  0.41419305  0.37277887  0.96551523     0.82200
N68         N  0.41979380  0.40910977  0.96563533    -0.76100
C69         C  0.42347005  0.42691388  0.99771804     0.84600
N70         N  0.41982979  0.40857931  0.02939501    -0.76100
C71         C  0.41421079  0.37230503  0.02886070     0.84700
N72         N  0.41116873  0.35480406  0.99703324    -0.77800
C73         C  0.76415044  0.95372973  0.85531893     0.82200
N74         N  0.76404741  0.95402560  0.89200696    -0.76100
C75         C  0.76385882  0.98580408  0.91031401     0.84600
N76         N  0.76378601  0.01750966  0.89195157    -0.76100
C77         C  0.76387847  0.01762818  0.85525247     0.84700
N78         N  0.76406156  0.98563310  0.83680097    -0.77800
C79         C  0.61617365  0.01498698  0.59461665     0.82200
N80         N  0.57991396  0.01517412  0.58880949    -0.76100
C81         C  0.56202327  0.98333439  0.58400524     0.84600
N82         N  0.58022121  0.95144677  0.58672634    -0.76100
C83         C  0.61650098  0.95168926  0.59252297     0.84700
N84         N  0.63405351  0.98334982  0.59667882    -0.77800
C85         C  0.24811282  0.01479285  0.14573118     0.82200
N86         N  0.24772347  0.98296022  0.16437197    -0.76100
C87         C  0.24733941  0.95088768  0.14603936     0.84600
N88         N  0.24734225  0.95088347  0.10931571    -0.76100
C89         C  0.24773212  0.98255350  0.09085838     0.84700
N90         N  0.24810551  0.01436396  0.10906854    -0.77800
C91         C  0.39571190  0.95286905  0.40776057     0.82200
N92         N  0.37756661  0.98423579  0.40435888    -0.76100
C93         C  0.39481645  0.01618248  0.40731663     0.84600
N94         N  0.43104797  0.01699485  0.41326489    -0.76100
C95         C  0.44953653  0.98543502  0.41732855     0.84700
N96         N  0.43196620  0.95324329  0.41371149    -0.77800
C97         C  0.97386275  0.12970402  0.76002534     0.82200
N98         N  0.00617337  0.14753295  0.75864678    -0.76100
C99         C  0.03777275  0.12847808  0.75854155     0.84600
N100        N  0.03686964  0.09182279  0.75979293    -0.76100
C101        C  0.00481696  0.07405275  0.76116197     0.84700
N102        N  0.97338932  0.09298756  0.76126194    -0.77800
C103        C  0.97540117  0.39140647  0.60946294     0.82200
N104        N  0.00740016  0.38764524  0.62645909    -0.76100
C105        C  0.03869789  0.39050533  0.60808652     0.84600
N106        N  0.03819531  0.39665927  0.57189968    -0.76100
C107        C  0.00599728  0.40101468  0.55458693     0.84700
N108        N  0.97446711  0.39756567  0.57326515    -0.77800
C109        C  0.03822779  0.83769681  0.76189153     0.82200
N110        N  0.00626093  0.81921860  0.76186178    -0.76100
C111        C  0.97431234  0.83765669  0.76237418     0.84600
N112        N  0.97452590  0.87434793  0.76287196    -0.76100
C113        C  0.00625462  0.89275010  0.76290472     0.84700
N114        N  0.03802621  0.87442362  0.76239996    -0.77800
C115        C  0.97274096  0.57661851  0.61124916     0.82200
N116        N  0.97294868  0.57124456  0.57488910    -0.76100
C117        C  0.00504485  0.56749323  0.55724696     0.84600
N118        N  0.03668088  0.57079129  0.57576900    -0.76100
C119        C  0.03606508  0.57616889  0.61207862     0.84700
N120        N  0.00421315  0.57933602  0.62943275    -0.77800
C121        C  0.03868743  0.83956345  0.24132723     0.82200
N122        N  0.00623992  0.82198235  0.24265741    -0.76100
C123        C  0.97480231  0.84128885  0.24289124     0.84600
N124        N  0.97598362  0.87791519  0.24180427    -0.76100
C125        C  0.00813901  0.89545830  0.24049953     0.84700
N126        N  0.03944807  0.87630170  0.24028229    -0.77800
C127        C  0.03854257  0.57756594  0.39283551     0.82200
N128        N  0.00703502  0.58312431  0.37541694    -0.76100
C129        C  0.97538188  0.58182512  0.39333274     0.84600
N130        N  0.97501794  0.57542275  0.42944990    -0.76100
C131        C  0.00665325  0.56930588  0.44720876     0.84700
N132        N  0.03862523  0.57117707  0.42902517    -0.77800
C133        C  0.97208268  0.13189305  0.23975335     0.82200
N134        N  0.97208866  0.09513364  0.23951641    -0.76100
C135        C  0.00379948  0.07664820  0.23933537     0.84600
N136        N  0.03559518  0.09489061  0.23941332    -0.76100
C137        C  0.03601536  0.13155469  0.23966088     0.84700
N138        N  0.00416953  0.15018161  0.23983739    -0.77800
C139        C  0.03539036  0.39038137  0.39005183     0.82200
N140        N  0.03609665  0.39604841  0.42634736    -0.76100
C141        C  0.00459398  0.40177423  0.44450168     0.84600
N142        N  0.97248817  0.40022634  0.42653150    -0.76100
C143        C  0.97220666  0.39459821  0.39023377     0.84700
N144        N  0.00353197  0.38941840  0.37240052    -0.77800
C145        C  0.26559755  0.51506154  0.35496727     0.82200
N146        N  0.26577883  0.48315090  0.33639642    -0.76100
C147        C  0.26585538  0.45114825  0.35472758     0.84600
N148        N  0.26569734  0.45127348  0.39146897    -0.76100
C149        C  0.26550760  0.48302253  0.40993543     0.84700
N150        N  0.26545346  0.51479103  0.39166430    -0.77800
C151        C  0.11396079  0.45263851  0.09282948     0.82200
N152        N  0.07761025  0.45310342  0.08761352    -0.76100
C153        C  0.06021176  0.48531852  0.08385052     0.84600
N154        N  0.07898787  0.51684495  0.08699406    -0.76100
C155        C  0.11531921  0.51593818  0.09220457     0.84700
N156        N  0.13239715  0.48395554  0.09537267    -0.77800
O157        O  0.18075709  0.72776121  0.15890446    -0.84500
O158        O  0.36046455  0.78733771  0.23797096    -0.84700
O159        O  0.26146590  0.82511898  0.17564989    -0.86300
O160        O  0.31150533  0.72041101  0.14739073    -0.85100
O161        O  0.31519261  0.66504596  0.17545275    -0.84700
O162        O  0.23427031  0.84786176  0.22671045    -0.86100
O163        O  0.33264537  0.79074991  0.18238204    -0.84500
O164        O  0.23198428  0.75450681  0.13602486    -0.84100
Zr165      Zr  0.27496473  0.76075694  0.18583141     2.84300
O166        O  0.31145896  0.72427835  0.22268302    -1.06100
O167        O  0.21858705  0.77019305  0.21324574    -1.06800
C168        C  0.19960485  0.74177823  0.13298211     1.08600
C169        C  0.35838900  0.79784927  0.20464841     1.08500
C170        C  0.24737248  0.85105648  0.19450387     1.11500
C171        C  0.32256255  0.68727503  0.14986974     1.09300
H172        H  0.29528988  0.81223026  0.23895269     0.34900
O173        O  0.28403596  0.78887824  0.24198266    -1.27100
H174        H  0.24453797  0.69352900  0.17189422     0.34500
O175        O  0.24745231  0.70479426  0.19527329    -1.28700
O176        O  0.33077063  0.74016771  0.34327580    -0.84500
O177        O  0.15333667  0.67651016  0.26300685    -0.86000
O178        O  0.26776793  0.83685709  0.30588039    -0.84600
O179        O  0.34862095  0.65881822  0.24505227    -0.84600
O180        O  0.24392558  0.62876309  0.19644427    -0.84300
O181        O  0.16367346  0.80804470  0.25581939    -0.84200
O182        O  0.20170754  0.74544382  0.35494508    -0.84500
O183        O  0.25083283  0.64113760  0.32601053    -0.84000
O184        O  0.19767991  0.80091231  0.32707954    -0.85000
O185        O  0.27717910  0.61813493  0.27465725    -0.84200
O186        O  0.32351739  0.80950733  0.30930300    -0.84600
O187        O  0.14081819  0.75652116  0.22951668    -0.84300
O188        O  0.18835343  0.65647340  0.19250480    -0.84000
O189        O  0.37119867  0.71027651  0.27172097    -0.84400
O190        O  0.27959053  0.71334888  0.36606865    -0.84700
O191        O  0.18121575  0.67334164  0.31856133    -0.86000
Zr192      Zr  0.32101492  0.75232386  0.27845310     2.83100
Zr193      Zr  0.19115448  0.71390766  0.22306096     2.83500
Zr194      Zr  0.22796460  0.79790906  0.26949843     2.84100
Zr195      Zr  0.28393098  0.66814017  0.23223568     2.83400
Zr196      Zr  0.23756546  0.70556319  0.31582713     2.84200
O197        O  0.22807058  0.67769019  0.25982983    -1.06600
O198        O  0.26492477  0.76156446  0.30606039    -1.06100
C199        C  0.31167889  0.72666054  0.36934264     1.08600
C200        C  0.15589950  0.66543858  0.29611747     1.11200
C201        C  0.30098215  0.83483700  0.31673545     1.08700
C202        C  0.37452901  0.67807528  0.25872190     1.09100
C203        C  0.21077414  0.63092010  0.18539338     1.08700
C204        C  0.13765825  0.78900094  0.24210243     1.08200
C205        C  0.19065907  0.77855058  0.35271342     1.08700
C206        C  0.26439498  0.61505780  0.30696715     1.08200
H207        H  0.17696935  0.74441343  0.29020242     0.34900
O208        O  0.20034833  0.74160191  0.27898452    -1.27700
H209        H  0.30898911  0.68099083  0.30355635     0.34900
O210        O  0.29383697  0.69591359  0.28841853    -1.29100
C211        C  0.36103515  0.24295959  0.46570524     0.82200
N212        N  0.39775446  0.24352061  0.46576929    -0.76100
C213        C  0.41622198  0.24337586  0.49749768     0.84600
N214        N  0.39800462  0.24264056  0.52927874    -0.76100
C215        C  0.36134132  0.24205452  0.52958735     0.84700
N216        N  0.34273808  0.24220004  0.49771692    -0.77800
C217        C  0.09891662  0.09062988  0.46530535     0.82200
N218        N  0.10166988  0.10879428  0.49678219    -0.76100
C219        C  0.09857968  0.09147176  0.52863661     0.84600
N220        N  0.09317130  0.05517402  0.52926257    -0.76100
C221        C  0.08977440  0.03664758  0.49761251     0.84700
N222        N  0.09350447  0.05427443  0.46549234    -0.77800
O223        O  0.26141877  0.13962051  0.82244329    -0.84500
O224        O  0.20312280  0.21888636  0.64253279    -0.84700
O225        O  0.16441366  0.15638669  0.74135651    -0.86300
O226        O  0.26908296  0.12871683  0.69086182    -0.85100
O227        O  0.32464033  0.15661279  0.68771104    -0.84700
O228        O  0.14169699  0.20759751  0.76827428    -0.86100
O229        O  0.19897780  0.16342357  0.67040357    -0.84500
O230        O  0.23504763  0.11657649  0.77100708    -0.84100
Zr231      Zr  0.22899022  0.16651867  0.72811766     2.84300
O232        O  0.26603382  0.20338035  0.69211005    -1.06100
O233        O  0.21929494  0.19390869  0.78445966    -1.06800
C234        C  0.24753846  0.11362231  0.80351230     1.08600
C235        C  0.19213480  0.18572198  0.64467922     1.08500
C236        C  0.13845995  0.17533378  0.75531615     1.11500
C237        C  0.30216220  0.13133125  0.67972731     1.09300
H238        H  0.17792147  0.21974718  0.70740565     0.34900
O239        O  0.20123277  0.22269675  0.71878344    -1.27100
H240        H  0.29621636  0.15252578  0.75884601     0.34500
O241        O  0.28496404  0.17587613  0.75592024    -1.28700
O242        O  0.25059951  0.32392186  0.67254500    -0.84500
O243        O  0.31218671  0.24375354  0.85066563    -0.86000
O244        O  0.15364977  0.28679466  0.73463468    -0.84600
O245        O  0.33242957  0.22614672  0.65562079    -0.84600
O246        O  0.36121727  0.17739725  0.76016706    -0.84300
O247        O  0.18148875  0.23668664  0.83920893    -0.84200
O248        O  0.24330468  0.33593715  0.80125660    -0.84500
O249        O  0.34834412  0.30723632  0.75368601    -0.84000
O250        O  0.18795235  0.30772312  0.80480758    -0.85000
O251        O  0.37175174  0.25595385  0.72752014    -0.84200
O252        O  0.18150607  0.29028107  0.67912810    -0.84600
O253        O  0.23278516  0.21021499  0.86219458    -0.84300
O254        O  0.33302852  0.17333880  0.81547665    -0.84000
O255        O  0.28107990  0.25234333  0.63246659    -0.84400
O256        O  0.27668749  0.34682304  0.72413803    -0.84700
O257        O  0.31522680  0.29944990  0.82317899    -0.86000
Zr258      Zr  0.23832495  0.25910378  0.68216314     2.83100
Zr259      Zr  0.27550246  0.20371082  0.81216659     2.83500
Zr260      Zr  0.19177372  0.25011532  0.77484722     2.84100
Zr261      Zr  0.32202268  0.21304282  0.72001496     2.83400
Zr262      Zr  0.28395482  0.29666012  0.76625938     2.84200
O263        O  0.31191721  0.24073561  0.77579160    -1.06600
O264        O  0.22839124  0.28667276  0.73821300    -1.06100
C265        C  0.26381470  0.35004539  0.69186252     1.08600
C266        C  0.32297572  0.27698807  0.84846662     1.11200
C267        C  0.15607846  0.29779464  0.70150843     1.08700
C268        C  0.31342436  0.23965432  0.62950530     1.09100
C269        C  0.35884838  0.16637658  0.79329795     1.08700
C270        C  0.20044149  0.22299963  0.86527416     1.08200
C271        C  0.21001354  0.33365135  0.81178898     1.08700
C272        C  0.37458149  0.28833405  0.74033201     1.08200
H273        H  0.24470271  0.27093532  0.82634583     0.34900
O274        O  0.24777529  0.25962159  0.80301591    -1.27700
H275        H  0.30943248  0.28438255  0.69509133     0.34900
O276        O  0.29435818  0.26919831  0.71004323    -1.29100
C277        C  0.35892054  0.72612303  0.46987347     0.82200
N278        N  0.34050635  0.72581530  0.50187954    -0.76100
C279        C  0.35907896  0.72543386  0.53382644     0.84600
N280        N  0.39576219  0.72536853  0.53353144    -0.76100
C281        C  0.41401495  0.72566691  0.50175824     0.84700
N282        N  0.39560600  0.72604188  0.47004325    -0.77800
C283        C  0.09936159  0.87299664  0.53326145     0.82200
N284        N  0.09395538  0.90933000  0.53268687    -0.76100
C285        C  0.08952145  0.92652682  0.50043437     0.84600
N286        N  0.09218596  0.90758609  0.46897822    -0.76100
C287        C  0.09758697  0.87130389  0.46996328     0.84700
N288        N  0.10142108  0.85439652  0.50197924    -0.77800
C289        C  0.26541162  0.51497871  0.64697951     0.82200
N290        N  0.26530668  0.51543810  0.61024914    -0.76100
C291        C  0.26480820  0.48401260  0.59126602     0.84600
N292        N  0.26441585  0.45194842  0.60900250    -0.76100
C293        C  0.26450718  0.45103885  0.64568737     0.84700
N294        N  0.26500311  0.48265952  0.66480360    -0.77800
C295        C  0.11499345  0.45136275  0.90384794     0.82200
N296        N  0.13313751  0.48293880  0.90290960    -0.76100
C297        C  0.11585881  0.51452991  0.90835321     0.84600
N298        N  0.07961824  0.51479499  0.91425465    -0.76100
C299        C  0.06115915  0.48295938  0.91575357     0.84700
N300        N  0.07876159  0.45119281  0.90976328    -0.77800
O301        O  0.18029483  0.72697566  0.84410407    -0.84500
O302        O  0.35915142  0.78881298  0.76585879    -0.84700
O303        O  0.31018354  0.72034017  0.85734290    -0.86300
O304        O  0.26182658  0.82472212  0.82805710    -0.85100
O305        O  0.23559775  0.84764566  0.77661974    -0.84700
O306        O  0.31445287  0.66498350  0.82916613    -0.86100
O307        O  0.33105155  0.79220329  0.82125695    -0.84500
O308        O  0.23157788  0.75320117  0.86754316    -0.84100
Zr309      Zr  0.27456032  0.76024518  0.81799385     2.84300
O310        O  0.28432118  0.78800928  0.76207050    -1.06100
O311        O  0.24694207  0.70447668  0.80781961    -1.06800
C312        C  0.19918584  0.74050003  0.87032050     1.08600
C313        C  0.35654418  0.79990444  0.79900983     1.08500
C314        C  0.32133184  0.68726263  0.85497848     1.11500
C315        C  0.24842183  0.85075193  0.80891690     1.09300
H316        H  0.33514762  0.72139466  0.79245855     0.34900
O317        O  0.31181179  0.72424863  0.78112591    -1.27100
H318        H  0.20335939  0.78524095  0.80514533     0.34500
O319        O  0.21850531  0.77018095  0.79012566    -1.28700
O320        O  0.33096728  0.73903593  0.66044853    -0.84500
O321        O  0.15190504  0.67842330  0.73943636    -0.86000
O322        O  0.34846138  0.65803182  0.75796958    -0.84600
O323        O  0.26944829  0.83772702  0.69991465    -0.84600
O324        O  0.16420827  0.80804768  0.74669466    -0.84300
O325        O  0.24426147  0.62997613  0.80872646    -0.84200
O326        O  0.25133731  0.64056078  0.67751047    -0.84500
O327        O  0.20123773  0.74516758  0.64919923    -0.84000
O328        O  0.27781609  0.61775271  0.72889880    -0.85000
O329        O  0.19802329  0.80082810  0.67689372    -0.84200
O330        O  0.37121255  0.70937292  0.73136962    -0.84600
O331        O  0.18855410  0.65748254  0.81178652    -0.84300
O332        O  0.14103966  0.75662270  0.77269178    -0.84000
O333        O  0.32493202  0.80987117  0.69617306    -0.84400
O334        O  0.27994667  0.71173852  0.63761175    -0.84700
O335        O  0.18004523  0.67467559  0.68407573    -0.86000
Zr336      Zr  0.32120086  0.75190871  0.72521901     2.83100
Zr337      Zr  0.19098808  0.71399873  0.77980405     2.83500
Zr338      Zr  0.28411985  0.66798890  0.77157819     2.84100
Zr339      Zr  0.22872373  0.79779788  0.73406196     2.83400
Zr340      Zr  0.23758923  0.70495485  0.68770525     2.84200
O341        O  0.20093732  0.74178605  0.72412468    -1.06600
O342        O  0.29385810  0.69552692  0.71535848    -1.06100
C343        C  0.31203586  0.72508753  0.63440153     1.08600
C344        C  0.15425037  0.66759820  0.70622515     1.11200
C345        C  0.37436312  0.67703746  0.74406901     1.08700
C346        C  0.30280601  0.83576842  0.68952968     1.09100
C347        C  0.13803931  0.78900973  0.76004381     1.08700
C348        C  0.21113149  0.63233976  0.81972283     1.08200
C349        C  0.26511503  0.61456315  0.69648710     1.08700
C350        C  0.19052503  0.77841828  0.65141688     1.08200
H351        H  0.21691961  0.65368665  0.74079091     0.34900
O352        O  0.22814912  0.67706339  0.74380056    -1.27700
H353        H  0.26816842  0.77255046  0.67395471     0.34900
O354        O  0.26511160  0.76106111  0.69717228    -1.29100
C355        C  0.74650176  0.45606728  0.35432133     0.82200
N356        N  0.74639272  0.45571850  0.39103321    -0.76100
C357        C  0.74626676  0.48717661  0.40993743     0.84600
N358        N  0.74624780  0.51921426  0.39211457    -0.76100
C359        C  0.74635641  0.52000627  0.35540544     0.84700
N360        N  0.74649492  0.48832246  0.33639261    -0.77800
C361        C  0.89660770  0.52003630  0.09601879     0.82200
N362        N  0.87821580  0.48865887  0.09806851    -0.76100
C363        C  0.89523643  0.45676554  0.09373209     0.84600
N364        N  0.93145437  0.45599661  0.08782149    -0.76100
C365        C  0.95016346  0.48759543  0.08517863     0.84700
N366        N  0.93284099  0.51970351  0.09008903    -0.77800
C367        C  0.53882988  0.63227691  0.26219222     0.82200
N368        N  0.50667720  0.65030607  0.26131294    -0.76100
C369        C  0.47498376  0.63143013  0.26096995     0.84600
N370        N  0.47560267  0.59477810  0.26148528    -0.76100
C371        C  0.50750942  0.57681384  0.26234690     0.84700
N372        N  0.53908351  0.59554340  0.26267800    -0.77800
C373        C  0.53866338  0.89736753  0.11251591     0.82200
N374        N  0.53881025  0.90308845  0.07621179    -0.76100
C375        C  0.50689229  0.90475799  0.05786533     0.84600
N376        N  0.47519667  0.89896579  0.07564048    -0.76100
C377        C  0.47545642  0.89322078  0.11190359     0.84700
N378        N  0.50709912  0.89220661  0.12993130    -0.77800
O379        O  0.75021073  0.83082180  0.17760520    -0.84500
O380        O  0.81114450  0.75129919  0.35622875    -0.84700
O381        O  0.74288804  0.84342569  0.30779852    -0.86300
O382        O  0.84773473  0.81444253  0.25926407    -0.85100
O383        O  0.87062186  0.76307567  0.23282366    -0.84700
O384        O  0.68744906  0.81534037  0.31142679    -0.86100
O385        O  0.81487384  0.80687398  0.32854341    -0.84500
O386        O  0.77596687  0.85417032  0.22919493    -0.84100
Zr387      Zr  0.78305084  0.80438036  0.27190565     2.84300
O388        O  0.81053804  0.74829648  0.28154638    -1.06100
O389        O  0.72740037  0.79435464  0.24389561    -1.06800
C390        C  0.76345563  0.85701543  0.19671992     1.08600
C391        C  0.82248221  0.78433300  0.35380866     1.08500
C392        C  0.70973134  0.84101784  0.31875543     1.11500
C393        C  0.87379235  0.79533174  0.24574121     1.09300
H394        H  0.74371990  0.77852407  0.33210180     0.34900
O395        O  0.74669843  0.76735120  0.30869394    -1.27100
H396        H  0.80834928  0.79176292  0.20065491     0.34500
O397        O  0.79321702  0.77673608  0.21570705    -1.28700
O398        O  0.76092079  0.64668647  0.32769895    -0.84500
O399        O  0.70188088  0.72634546  0.14824070    -0.86000
O400        O  0.68002600  0.74420501  0.34479864    -0.84600
O401        O  0.86020922  0.68611668  0.26661162    -0.84600
O402        O  0.83080191  0.73260270  0.16115437    -0.84300
O403        O  0.65279156  0.79529958  0.24056299    -0.84200
O404        O  0.66386872  0.66365852  0.24755375    -0.84500
O405        O  0.76846990  0.63581871  0.19773457    -0.84000
O406        O  0.64074434  0.71492496  0.27405753    -0.85000
O407        O  0.82415070  0.66347022  0.19508976    -0.84200
O408        O  0.73117523  0.71745031  0.36779419    -0.84600
O409        O  0.68064826  0.79850561  0.18503966    -0.84300
O410        O  0.77957177  0.75895184  0.13794783    -0.84000
O411        O  0.83187824  0.68186039  0.32183174    -0.84400
O412        O  0.73438536  0.62398424  0.27622001    -0.84700
O413        O  0.69817852  0.67084951  0.17605612    -0.86000
Zr414      Zr  0.77411348  0.71131624  0.31800051     2.83100
Zr415      Zr  0.73713161  0.76651794  0.18787294     2.83500
Zr416      Zr  0.69059024  0.75799825  0.28058383     2.84100
Zr417      Zr  0.82073478  0.72059842  0.22583411     2.83400
Zr418      Zr  0.72800700  0.67422343  0.23389126     2.84200
O419        O  0.76494104  0.71084181  0.19767042    -1.06600
O420        O  0.71801941  0.70169918  0.29015926    -1.06100
C421        C  0.74719538  0.62070560  0.30854101     1.08600
C422        C  0.69122878  0.69306465  0.15028379     1.11200
C423        C  0.69882249  0.73018990  0.37079545     1.08700
C424        C  0.85791879  0.67536358  0.29981795     1.09100
C425        C  0.81175669  0.74584824  0.13493073     1.08700
C426        C  0.65536230  0.80640753  0.20747170     1.08200
C427        C  0.63782008  0.68246818  0.26139488     1.08700
C428        C  0.80180253  0.63803516  0.18732356     1.08200
H429        H  0.67670067  0.72732280  0.21317044     0.34900
O430        O  0.69999713  0.73032936  0.22456868    -1.27700
H431        H  0.79522788  0.66026897  0.26488319     0.34900
O432        O  0.78382653  0.68353406  0.26185733    -1.29100
C433        C  0.65008151  0.72734917  0.53427929     0.82200
N434        N  0.61338655  0.72675006  0.53405613    -0.76100
C435        C  0.59504713  0.72666777  0.50227365     0.84600
N436        N  0.61338731  0.72719992  0.47053823    -0.76100
C437        C  0.65007413  0.72780026  0.47038805     0.84700
N438        N  0.66852579  0.72789040  0.50235079    -0.77800
C439        C  0.91155122  0.87816726  0.53372370     0.82200
N440        N  0.91671483  0.91453183  0.53424922    -0.76100
C441        C  0.92175001  0.93262505  0.50259881     0.84600
N442        N  0.91990821  0.91451760  0.47056441    -0.76100
C443        C  0.91475703  0.87815613  0.47046469     0.84700
N444        N  0.91034334  0.86039361  0.50193001    -0.77800
C445        C  0.53802612  0.62950171  0.74119587     0.82200
N446        N  0.50599817  0.64772779  0.74193391    -0.76100
C447        C  0.47418672  0.62907175  0.74134322     0.84600
N448        N  0.47456912  0.59240898  0.74006799    -0.76100
C449        C  0.50640325  0.57427347  0.73933540     0.84700
N450        N  0.53806253  0.59281112  0.73992125    -0.77800
C451        C  0.47320127  0.89301716  0.89387390     0.82200
N452        N  0.50460672  0.88964003  0.87576868    -0.76100
C453        C  0.53653813  0.89300537  0.89299464     0.84600
N454        N  0.53730388  0.89936286  0.92917824    -0.76100
C455        C  0.50571568  0.90340467  0.94763790     0.84700
N456        N  0.47354470  0.89938424  0.93008535    -0.77800
C457        C  0.74544045  0.45347533  0.64641398     0.82200
N458        N  0.74557419  0.48546422  0.66484462    -0.76100
C459        C  0.74581431  0.51738088  0.64638446     0.84600
N460        N  0.74595724  0.51712210  0.60966895    -0.76100
C461        C  0.74584247  0.48533668  0.59130313     0.84700
N462        N  0.74559403  0.45360114  0.60968425    -0.77800
C463        C  0.89678249  0.51527799  0.90782619     0.82200
N464        N  0.87871498  0.48367544  0.90646489    -0.76100
C465        C  0.89621277  0.45201089  0.91049313     0.84600
N466        N  0.93260989  0.45171123  0.91540328    -0.76100
C467        C  0.95101982  0.48355652  0.91738990     0.84700
N468        N  0.93317801  0.51541151  0.91274989    -0.77800
O469        O  0.83001866  0.72903191  0.84462721    -0.84500
O470        O  0.65104597  0.78954313  0.76496117    -0.84700
O471        O  0.75011071  0.82746892  0.82694572    -0.86300
O472        O  0.69886323  0.72328244  0.85470086    -0.85100
O473        O  0.69538136  0.66766727  0.82690243    -0.84700
O474        O  0.77718391  0.85001633  0.77578631    -0.86100
O475        O  0.67917546  0.79345574  0.82036716    -0.84500
O476        O  0.77896939  0.75623420  0.86732343    -0.84100
Zr477      Zr  0.73658106  0.76293996  0.81706147     2.84300
O478        O  0.70016557  0.72607981  0.78031246    -1.06100
O479        O  0.79304305  0.77217930  0.78982457    -1.06800
C480        C  0.81113827  0.74308070  0.87058606     1.08600
C481        C  0.65338043  0.80047240  0.79816163     1.08500
C482        C  0.76406688  0.85336073  0.80794636     1.11500
C483        C  0.68752298  0.69026026  0.85210534     1.09300
H484        H  0.71628589  0.81418580  0.76384638     0.34900
O485        O  0.72747285  0.79079907  0.76092921    -1.27100
H486        H  0.76667770  0.69529065  0.83110313     0.34500
O487        O  0.76383722  0.70668179  0.80780598    -1.28700
O488        O  0.67982342  0.74145564  0.66023613    -0.84500
O489        O  0.85790477  0.67864041  0.73970750    -0.86000
O490        O  0.74395726  0.83797483  0.69641199    -0.84600
O491        O  0.66338850  0.65963612  0.75719826    -0.84600
O492        O  0.76762668  0.63014925  0.80573309    -0.84300
O493        O  0.84822058  0.80911456  0.74723564    -0.84200
O494        O  0.80890620  0.74819712  0.64741929    -0.84500
O495        O  0.76066848  0.64330985  0.67625571    -0.84000
O496        O  0.81335444  0.80338125  0.67590370    -0.85000
O497        O  0.73455792  0.62012246  0.72761246    -0.84200
O498        O  0.68814991  0.81061662  0.69296947    -0.84600
O499        O  0.87061606  0.75767735  0.77389611    -0.84300
O500        O  0.82317678  0.65792784  0.80973066    -0.84000
O501        O  0.64038707  0.71121957  0.73137181    -0.84400
O502        O  0.73101658  0.71505859  0.63699899    -0.84700
O503        O  0.83034921  0.67591030  0.68393463    -0.86000
Zr504      Zr  0.69028148  0.75398850  0.72472110     2.83100
Zr505      Zr  0.82006910  0.71567908  0.78002773     2.83500
Zr506      Zr  0.78363587  0.79969992  0.73355075     2.84100
Zr507      Zr  0.72765652  0.66992613  0.77052057     2.83400
Zr508      Zr  0.77379705  0.70769314  0.68680603     2.84200
O509        O  0.78332748  0.67970463  0.74275573    -1.06600
O510        O  0.74637126  0.76344102  0.69707793    -1.06100
C511        C  0.69874264  0.72799765  0.63404919     1.08600
C512        C  0.85555484  0.66789984  0.70643626     1.11200
C513        C  0.71084352  0.83574024  0.68524864     1.08700
C514        C  0.63735142  0.67874622  0.74377641     1.09100
C515        C  0.80088143  0.63217169  0.81650929     1.08700
C516        C  0.87405169  0.78995350  0.76110221     1.08200
C517        C  0.81985981  0.78137985  0.64981728     1.08700
C518        C  0.74720751  0.61715818  0.69521205     1.08200
H519        H  0.83441620  0.74630636  0.71266780     0.34900
O520        O  0.81109641  0.74342794  0.72400279    -1.27700
H521        H  0.70253763  0.68278449  0.69930577     0.34900
O522        O  0.71767598  0.69776791  0.71446373    -1.29100
C523        C  0.47219635  0.34038551  0.25957316     0.82200
N524        N  0.47204323  0.37711148  0.26059932    -0.76100
C525        C  0.50367420  0.39575157  0.26079771     0.84600
N526        N  0.53554102  0.37770085  0.25994065    -0.76100
C527        C  0.53605422  0.34104936  0.25889807     0.84700
N528        N  0.50430105  0.32227772  0.25870472    -0.77800
C529        C  0.53553074  0.07948206  0.10734767     0.82200
N530        N  0.53596143  0.07299095  0.07118753    -0.76100
C531        C  0.50432324  0.06688691  0.05331140     0.84600
N532        N  0.47231855  0.06893012  0.07143424    -0.76100
C533        C  0.47231901  0.07539327  0.10763639     0.84700
N534        N  0.50381090  0.08086241  0.12514650    -0.77800
O535        O  0.83031078  0.24270834  0.15808438    -0.84500
O536        O  0.64983967  0.18425134  0.23583179    -0.84700
O537        O  0.74957549  0.14579015  0.17432627    -0.86300
O538        O  0.69863237  0.24966502  0.14637302    -0.85100
O539        O  0.69473877  0.30513438  0.17434751    -0.84700
O540        O  0.77629204  0.12309994  0.22563472    -0.86100
O541        O  0.67825082  0.18014684  0.18062509    -0.84500
O542        O  0.77905355  0.21620858  0.13486060    -0.84100
Zr543      Zr  0.73588854  0.21004660  0.18453700     2.84300
O544        O  0.69938619  0.24674381  0.22120204    -1.06100
O545        O  0.79201637  0.20048975  0.21229442    -1.06800
C546        C  0.81154148  0.22872535  0.13202274     1.08600
C547        C  0.65217989  0.17349107  0.20256039     1.08500
C548        C  0.76356330  0.11992660  0.19327635     1.11500
C549        C  0.68712784  0.28260632  0.14899265     1.09300
H550        H  0.71496260  0.15886205  0.23747858     0.34900
O551        O  0.72627583  0.18218336  0.24062476    -1.27100
H552        H  0.76633286  0.27722580  0.17055492     0.34500
O553        O  0.76335793  0.26606462  0.19394052    -1.28700
O554        O  0.67968894  0.23109731  0.34185233    -0.84500
O555        O  0.85722403  0.29417137  0.26209115    -0.86000
O556        O  0.74168887  0.13413247  0.30409178    -0.84600
O557        O  0.66230948  0.31280380  0.24359124    -0.84600
O558        O  0.76691456  0.34200541  0.19512735    -0.84300
O559        O  0.84651271  0.16261775  0.25498832    -0.84200
O560        O  0.80767862  0.22495658  0.35443207    -0.84500
O561        O  0.76028024  0.33007637  0.32465078    -0.84000
O562        O  0.81142085  0.16944897  0.32648774    -0.85000
O563        O  0.73418214  0.35307652  0.27317825    -0.84200
O564        O  0.68607845  0.16179761  0.30734585    -0.84600
O565        O  0.86955404  0.21394131  0.22863477    -0.84300
O566        O  0.82245248  0.31417992  0.19158288    -0.84000
O567        O  0.63933225  0.26146773  0.26996462    -0.84400
O568        O  0.73081285  0.25802706  0.36482729    -0.84700
O569        O  0.82951991  0.29716327  0.31770576    -0.86000
Zr570      Zr  0.68924294  0.21902856  0.27688084     2.83100
Zr571      Zr  0.81947258  0.25675358  0.22212122     2.83500
Zr572      Zr  0.78218285  0.17300701  0.26846445     2.84100
Zr573      Zr  0.72687093  0.30286818  0.23085553     2.83400
Zr574      Zr  0.77291930  0.26540392  0.31474906     2.84200
O575        O  0.78256065  0.29306237  0.25876853    -1.06600
O576        O  0.74521451  0.20960180  0.30474689    -1.06100
C577        C  0.69877312  0.24461995  0.36801148     1.08600
C578        C  0.85471346  0.30517461  0.29523138     1.11200
C579        C  0.70841154  0.13628273  0.31470800     1.08700
C580        C  0.63623970  0.29371213  0.25706597     1.09100
C581        C  0.80011859  0.33977723  0.18433180     1.08700
C582        C  0.87258682  0.18149587  0.24122701     1.08200
C583        C  0.81815229  0.19162163  0.35240987     1.08700
C584        C  0.74702356  0.35621803  0.30550415     1.08200
H585        H  0.83341554  0.22616873  0.28955344     0.34900
O586        O  0.81014778  0.22915554  0.27810367    -1.27700
H587        H  0.70163894  0.29036924  0.30214485     0.34900
O588        O  0.71673330  0.27531901  0.28705706    -1.29100
C589        C  0.47388289  0.33787660  0.73931529     0.82200
N590        N  0.47378705  0.37458586  0.73863766    -0.76100
C591        C  0.50541704  0.39318869  0.73839710     0.84600
N592        N  0.53728358  0.37510470  0.73887319    -0.76100
C593        C  0.53774535  0.33843169  0.73955799     0.84700
N594        N  0.50596001  0.31970511  0.73979689    -0.77800
C595        C  0.47543175  0.07356077  0.88790210     0.82200
N596        N  0.47447656  0.06823706  0.92423384    -0.76100
C597        C  0.50596210  0.06496435  0.94306216     0.84600
N598        N  0.53820213  0.06878787  0.92569567    -0.76100
C599        C  0.53875910  0.07411410  0.88934671     0.84700
N600        N  0.50745960  0.07672131  0.87087345    -0.77800
C601        C  0.65237677  0.24406023  0.53275355     0.82200
N602        N  0.61566393  0.24405043  0.53259445    -0.76100
C603        C  0.59725427  0.24412654  0.50085011     0.84600
N604        N  0.61551666  0.24421020  0.46909475    -0.76100
C605        C  0.65218244  0.24420741  0.46878537     0.84700
N606        N  0.67076733  0.24413429  0.50072653    -0.77800
C607        C  0.90955450  0.09675437  0.47092233     0.82200
N608        N  0.91503071  0.06044688  0.47072386    -0.76100
C609        C  0.92093159  0.04278128  0.50246557     0.84600
N610        N  0.91974640  0.06125744  0.53431112    -0.76100
C611        C  0.91431025  0.09756784  0.53408049     0.84700
N612        N  0.90896349  0.11491607  0.50251477    -0.77800
O613        O  0.83169326  0.24189678  0.84329819    -0.84500
O614        O  0.65340369  0.17939801  0.76364230    -0.84700
O615        O  0.70254283  0.24877804  0.85624410    -0.86300
O616        O  0.75018025  0.14378957  0.82660202    -0.85100
O617        O  0.77669198  0.12082048  0.77530382    -0.84700
O618        O  0.69813494  0.30396308  0.82791703    -0.86100
O619        O  0.68090377  0.17659538  0.81941735    -0.84500
O620        O  0.78038253  0.21554797  0.86639375    -0.84100
Zr621      Zr  0.73758283  0.20834812  0.81663688     2.84300
O622        O  0.72823173  0.18042042  0.76059967    -1.06100
O623        O  0.76520726  0.26405417  0.80647688    -1.06800
C624        C  0.81270135  0.22839819  0.86938732     1.08600
C625        C  0.65571250  0.16858278  0.79685298     1.08500
C626        C  0.69161109  0.28195383  0.85394908     1.11500
C627        C  0.76364480  0.11770096  0.80750578     1.09300
H628        H  0.67704338  0.24708276  0.79093784     0.34900
O629        O  0.70037700  0.24420378  0.77963052    -1.27100
H630        H  0.80892551  0.18343805  0.80414700     0.34500
O631        O  0.79382416  0.19845963  0.78905640    -1.28700
O632        O  0.68143169  0.22951181  0.65898411    -0.84500
O633        O  0.86058804  0.29018226  0.73867328    -0.86000
O634        O  0.66360384  0.31003589  0.75631149    -0.84600
O635        O  0.74393406  0.13088816  0.69768348    -0.84600
O636        O  0.84836988  0.16042824  0.74587399    -0.84300
O637        O  0.76765632  0.33856186  0.80779334    -0.84200
O638        O  0.76076726  0.32793038  0.67645995    -0.84500
O639        O  0.81254038  0.22436010  0.64883406    -0.84000
O640        O  0.73410583  0.35071447  0.72776287    -0.85000
O641        O  0.81610845  0.16871553  0.67637973    -0.84200
O642        O  0.64117569  0.25858008  0.72947687    -0.84600
O643        O  0.82342803  0.31118559  0.81103632    -0.84300
O644        O  0.87146105  0.21199153  0.77184913    -0.84000
O645        O  0.68834765  0.15852093  0.69383408    -0.84400
O646        O  0.73252489  0.25668953  0.63636697    -0.84700
O647        O  0.83226990  0.29420958  0.68338535    -0.86000
Zr648      Zr  0.69145403  0.21636447  0.72354975     2.83100
Zr649      Zr  0.82136761  0.25466109  0.77889948     2.91500
Zr650      Zr  0.72801440  0.30049784  0.77027268     2.84100
Zr651      Zr  0.78396260  0.17073902  0.73285110     2.83400
Zr652      Zr  0.77485023  0.26370980  0.68668881     2.84200
O653        O  0.81138840  0.22690757  0.72320750    -1.06600
O654        O  0.71848994  0.27289170  0.71400528    -1.06100
C655        C  0.70035421  0.24348934  0.63304503     1.08600
C656        C  0.85818283  0.30111460  0.70551260     1.11200
C657        C  0.63782712  0.29090768  0.74221924     1.08700
C658        C  0.71065447  0.13280210  0.68700290     1.09100
C659        C  0.87452474  0.17954067  0.75922611     1.08700
C660        C  0.80074425  0.33623722  0.81898346     1.08200
C661        C  0.74677957  0.35386777  0.69538017     1.08700
C662        C  0.82392542  0.19139029  0.65128840     1.08200
H663        H  0.79535785  0.31503429  0.73996520     0.34900
O664        O  0.78418104  0.29162723  0.74286943    -1.27700
H665        H  0.74481401  0.19599748  0.67241538     0.34900
O666        O  0.74766656  0.20739649  0.69574136    -1.29100
O667        O  0.18070547  0.24052952  0.15565946    -0.84500
O668        O  0.35804643  0.17732681  0.23596678    -0.84700
O669        O  0.30965116  0.24649369  0.14398310    -0.86300
O670        O  0.26148987  0.14156253  0.17316916    -0.85100
O671        O  0.23486265  0.11870760  0.22440353    -0.84700
O672        O  0.31331758  0.30200024  0.17199236    -0.86100
O673        O  0.33035827  0.17413536  0.18031060    -0.84500
O674        O  0.23190629  0.21377836  0.13281673    -0.84100
Zr675      Zr  0.27396640  0.20630547  0.18300885     2.84300
O676        O  0.28324186  0.17858274  0.23897597    -1.06100
O677        O  0.24633454  0.26213746  0.19299208    -1.06800
C678        C  0.19981455  0.22702218  0.12958146     1.08600
C679        C  0.35555524  0.16617219  0.20284212     1.08500
C680        C  0.32044617  0.27971906  0.14626401     1.11500
C681        C  0.24809342  0.11548232  0.19231043     1.09300
H682        H  0.33440801  0.24548409  0.20881120     0.34900
O683        O  0.31102776  0.24253261  0.21999810    -1.27100
H684        H  0.20248966  0.18142721  0.19510886     0.34500
O685        O  0.21758037  0.19644382  0.21028878    -1.28700
O686        O  0.33052010  0.22816209  0.34019132    -0.84500
O687        O  0.15081937  0.28769858  0.26123624    -0.86000
O688        O  0.34721119  0.30918783  0.24361186    -0.84600
O689        O  0.26744141  0.12936399  0.30189129    -0.84600
O690        O  0.16263917  0.15925832  0.25363858    -0.84300
O691        O  0.24317145  0.33746659  0.19335339    -0.84200
O692        O  0.25034528  0.32561970  0.32391428    -0.84500
O693        O  0.19985134  0.22104099  0.35149010    -0.84000
O694        O  0.27711860  0.34858147  0.27278080    -0.85000
O695        O  0.19615003  0.16567639  0.32326419    -0.84200
O696        O  0.37010704  0.25777957  0.26991037    -0.84600
O697        O  0.18752310  0.30982268  0.18983577    -0.84300
O698        O  0.13994292  0.21066875  0.22723190    -0.84000
O699        O  0.32300637  0.15715995  0.30597872    -0.84400
O700        O  0.27934383  0.25485260  0.36319275    -0.84700
O701        O  0.17874821  0.29129601  0.31678060    -0.86000
Zr702      Zr  0.32013316  0.21475024  0.27587238     2.83100
Zr703      Zr  0.19023427  0.25273761  0.22055277     2.83500
Zr704      Zr  0.28312513  0.29871717  0.22961875     2.84100
Zr705      Zr  0.22737985  0.16883634  0.26648827     2.83400
Zr706      Zr  0.23642152  0.26139937  0.31325293     2.84200
O707        O  0.19988070  0.22487392  0.27627996    -1.06600
O708        O  0.29267328  0.27098240  0.28575149    -1.06100
C709        C  0.31169007  0.24204282  0.36622554     1.08600
C710        C  0.15292992  0.29824783  0.29458708     1.11200
C711        C  0.37315792  0.29028546  0.25749271     1.08700
C712        C  0.30062408  0.13149045  0.31286152     1.09100
C713        C  0.13663234  0.17846367  0.24016865     1.08700
C714        C  0.20997019  0.33525422  0.18248002     1.08200
C715        C  0.26440984  0.35162072  0.30518083     1.08700
C716        C  0.18879401  0.18789970  0.34890876     1.08200
H717        H  0.21588025  0.31282409  0.26028553     0.34900
O718        O  0.22712776  0.28948948  0.25716309    -1.27700
H719        H  0.26678319  0.19412758  0.32693391     0.34900
O720        O  0.26386631  0.20546537  0.30362436    -1.29100
C721        C  0.84864676  0.17809844  0.62487013    -0.16500
C722        C  0.86988142  0.16110499  0.60712019     0.07500
C723        C  0.89202830  0.13744512  0.58729190     0.09400
C724        C  0.90620600  0.11708936  0.56633261    -0.17400
C725        C  0.67119308  0.24405601  0.56715864    -0.11300
C726        C  0.68456427  0.24396863  0.59716300    -0.12900
C727        C  0.62901281  0.14431951  0.81062304    -0.16500
C728        C  0.61118304  0.12327626  0.82783623     0.07500
C729        C  0.59149482  0.10064469  0.85123954     0.09400
C730        C  0.57084996  0.08508208  0.87092945    -0.17400
C731        C  0.57216948  0.31996411  0.74022589    -0.11300
C732        C  0.60210076  0.30667291  0.74097523    -0.12900
C733        C  0.68337601  0.24451943  0.40401672    -0.11300
C734        C  0.67063901  0.24436435  0.43425692    -0.12900
C735        C  0.89739765  0.11560649  0.43955079    -0.16500
C736        C  0.88200097  0.13560557  0.41911085     0.07500
C737        C  0.86039759  0.15953172  0.39897342     0.09400
C738        C  0.84061721  0.17728484  0.38029411    -0.17400
C739        C  0.50510640  0.06224664  0.98189835    -0.11300
C740        C  0.50452781  0.06282113  0.01457084    -0.12900
C741        C  0.38205771  0.14166346  0.18906086    -0.16500
C742        C  0.39971520  0.12073785  0.17147573     0.07500
C743        C  0.41931293  0.09875769  0.14731490     0.09400
C744        C  0.44002970  0.08429640  0.12683755    -0.17400
C745        C  0.62457352  0.15069416  0.18802096    -0.16500
C746        C  0.60636406  0.13047782  0.17014617     0.07500
C747        C  0.58683420  0.10819014  0.14619676     0.09400
C748        C  0.56677649  0.09215082  0.12620637    -0.17400
C749        C  0.40865290  0.30671805  0.25880934    -0.11300
C750        C  0.43814509  0.32107392  0.25929864    -0.12900
C751        C  0.60049902  0.30948398  0.25763098    -0.11300
C752        C  0.57051520  0.32266562  0.25812171    -0.12900
C753        C  0.87661312  0.42001637  0.90145796    -0.16500
C754        C  0.85594679  0.39954622  0.88691361     0.07500
C755        C  0.83173898  0.38025523  0.86475271     0.09400
C756        C  0.81426399  0.36273710  0.84362061    -0.17400
C757        C  0.87767223  0.54680274  0.89654610    -0.16500
C758        C  0.85724143  0.56697346  0.88136185     0.07500
C759        C  0.83289248  0.58643803  0.85959760     0.09400
C760        C  0.81499519  0.60458602  0.83945208    -0.17400
C761        C  0.74567772  0.38949963  0.67922215    -0.11300
C762        C  0.74536803  0.41921171  0.66533744    -0.12900
C763        C  0.74641458  0.58150910  0.67901259    -0.11300
C764        C  0.74604573  0.55171856  0.66523552    -0.12900
C765        C  0.56807031  0.88220112  0.87357507    -0.16500
C766        C  0.58840109  0.86687971  0.85337493     0.07500
C767        C  0.60806403  0.84459189  0.82962075     0.09400
C768        C  0.62615932  0.82394823  0.81220350    -0.17400
C769        C  0.50525963  0.43202752  0.73785748    -0.16500
C770        C  0.50559612  0.46463916  0.73766690     0.07500
C771        C  0.50617661  0.50283656  0.73781642     0.09400
C772        C  0.50650978  0.53544512  0.73830786    -0.17400
C773        C  0.57214378  0.64858824  0.74194378    -0.11300
C774        C  0.60178376  0.66256507  0.74265672    -0.12900
C775        C  0.92449551  0.97140871  0.50274853    -0.11300
C776        C  0.92422554  0.00404708  0.50265465    -0.12900
C777        C  0.84265202  0.79577542  0.62225348    -0.16500
C778        C  0.86270957  0.81386400  0.60419998     0.07500
C779        C  0.88450270  0.83833605  0.58492407     0.09400
C780        C  0.89987296  0.85885165  0.56498114    -0.17400
C781        C  0.66891798  0.72743502  0.56858663    -0.11300
C782        C  0.68264586  0.72755707  0.59838040    -0.12900
C783        C  0.68259714  0.72905035  0.40635213    -0.11300
C784        C  0.66888222  0.72841123  0.43611483    -0.12900
C785        C  0.84697361  0.79788707  0.38041889    -0.16500
C786        C  0.86823422  0.81510120  0.39803375     0.07500
C787        C  0.89076896  0.83879878  0.41751754     0.09400
C788        C  0.90562430  0.85900121  0.43822621    -0.17400
C789        C  0.50637232  0.90735982  0.98637927    -0.11300
C790        C  0.50685078  0.90779614  0.01905183    -0.12900
C791        C  0.62886041  0.83084858  0.19366326    -0.16500
C792        C  0.61119237  0.85184475  0.17622856     0.07500
C793        C  0.59157918  0.87398564  0.15229174     0.09400
C794        C  0.57086110  0.88852861  0.13189829    -0.17400
C795        C  0.50364179  0.43459512  0.26179977    -0.16500
C796        C  0.50475481  0.46719325  0.26240404     0.07500
C797        C  0.50654469  0.50536428  0.26275182     0.09400
C798        C  0.50763400  0.53796642  0.26272225    -0.17400
C799        C  0.57283712  0.65166069  0.26244024    -0.11300
C800        C  0.60233433  0.66600778  0.26232825    -0.12900
C801        C  0.81608325  0.61081419  0.16399743    -0.16500
C802        C  0.83395788  0.59258067  0.14389057     0.07500
C803        C  0.85807017  0.57263459  0.12229185     0.09400
C804        C  0.87810895  0.55196797  0.10723418    -0.17400
C805        C  0.87552068  0.42499998  0.10310329    -0.16500
C806        C  0.85509842  0.40445717  0.11775756     0.07500
C807        C  0.83126862  0.38479346  0.13985215     0.09400
C808        C  0.81395875  0.36682357  0.16062761    -0.17400
C809        C  0.74618948  0.48655572  0.44883363    -0.16500
C810        C  0.74614522  0.48605410  0.48148105     0.07500
C811        C  0.74608575  0.48556995  0.51974051     0.09400
C812        C  0.74599716  0.48532581  0.55239344    -0.17400
C813        C  0.74657396  0.58480893  0.32418595    -0.11300
C814        C  0.74639364  0.55469655  0.33722261    -0.12900
C815        C  0.74669453  0.39206621  0.32136575    -0.11300
C816        C  0.74659849  0.42194214  0.33501460    -0.12900
C817        C  0.40999014  0.66108407  0.74296290    -0.11300
C818        C  0.43983379  0.64762514  0.74220877    -0.12900
C819        C  0.44109447  0.88223659  0.87522812    -0.16500
C820        C  0.42055537  0.86695840  0.85509366     0.07500
C821        C  0.40102421  0.84474693  0.83100488     0.09400
C822        C  0.38328692  0.82400855  0.81319667    -0.17400
C823        C  0.98982096  0.48335704  0.91993120    -0.11300
C824        C  0.02245717  0.48316657  0.91943747    -0.12900
C825        C  0.13539637  0.54676995  0.90020461    -0.16500
C826        C  0.15591619  0.56776114  0.88630574     0.07500
C827        C  0.17998728  0.58775905  0.86473174     0.09400
C828        C  0.19743643  0.60569916  0.84401738    -0.17400
C829        C  0.26587157  0.57879605  0.68039516    -0.11300
C830        C  0.26584558  0.54903651  0.66645703    -0.12900
C831        C  0.11036642  0.85456963  0.56532210    -0.16500
C832        C  0.12538111  0.83452442  0.58601855     0.07500
C833        C  0.14700280  0.81039830  0.60593945     0.09400
C834        C  0.16715293  0.79254787  0.62415051    -0.17400
C835        C  0.45283368  0.72558698  0.50171308    -0.16500
C836        C  0.48543396  0.72560769  0.50180841     0.07500
C837        C  0.52361759  0.72579827  0.50202625     0.09400
C838        C  0.55621978  0.72611985  0.50220034    -0.17400
C839        C  0.34055176  0.72508598  0.56832038    -0.11300
C840        C  0.32760265  0.72490361  0.59847035    -0.12900
C841        C  0.41013915  0.30464811  0.73980843    -0.11300
C842        C  0.43976822  0.31870841  0.73957250    -0.12900
C843        C  0.44400234  0.08403123  0.86810825    -0.16500
C844        C  0.42371060  0.09937007  0.84788950     0.07500
C845        C  0.40407601  0.12190397  0.82437460     0.09400
C846        C  0.38601542  0.14277031  0.80721428    -0.17400
C847        C  0.26421459  0.41626381  0.66368403    -0.11300
C848        C  0.26404077  0.38602472  0.67641456    -0.12900
C849        C  0.13375623  0.41991768  0.89174276    -0.16500
C850        C  0.15378614  0.39950692  0.87634026     0.07500
C851        C  0.17779437  0.37958210  0.85462982     0.09400
C852        C  0.19560903  0.36119174  0.83462898    -0.17400
C853        C  0.08652351  0.96527294  0.49936384    -0.11300
C854        C  0.08661434  0.99789628  0.49828312    -0.12900
C855        C  0.10912514  0.11095259  0.56021029    -0.16500
C856        C  0.12466750  0.13114030  0.58039363     0.07500
C857        C  0.14748660  0.15472470  0.59961770     0.09400
C858        C  0.16855093  0.17192647  0.61743725    -0.17400
C859        C  0.16524826  0.17359919  0.37593249    -0.16500
C860        C  0.14513204  0.15526306  0.39370921     0.07500
C861        C  0.12379904  0.13036261  0.41301865     0.09400
C862        C  0.10920085  0.10961885  0.43333349    -0.17400
C863        C  0.45505712  0.24384201  0.49759725    -0.16500
C864        C  0.48765449  0.24407058  0.49848472     0.07500
C865        C  0.52582604  0.24417054  0.49984875     0.09400
C866        C  0.55842267  0.24416604  0.50071891    -0.17400
C867        C  0.34277263  0.24122154  0.56395581    -0.11300
C868        C  0.32942189  0.24052500  0.59386637    -0.12900
C869        C  0.34197533  0.24303523  0.43149844    -0.11300
C870        C  0.32794647  0.24287444  0.40183372    -0.12900
C871        C  0.41037274  0.66258022  0.25942990    -0.11300
C872        C  0.44046157  0.64966592  0.26008627    -0.12900
C873        C  0.44418241  0.88054815  0.13059167    -0.16500
C874        C  0.42394090  0.86429783  0.15012143     0.07500
C875        C  0.40416981  0.84157521  0.17332423     0.09400
C876        C  0.38587082  0.82097689  0.19054986    -0.17400
C877        C  0.34022679  0.72641458  0.43544485    -0.11300
C878        C  0.32721072  0.72655733  0.40530605    -0.12900
C879        C  0.10749541  0.85153860  0.43839010    -0.16500
C880        C  0.12278598  0.83164753  0.41778731     0.07500
C881        C  0.14562810  0.80873384  0.39790440     0.09400
C882        C  0.16682416  0.79210760  0.37978333    -0.17400
C883        C  0.98884012  0.48687298  0.08150390    -0.11300
C884        C  0.02145675  0.48613404  0.08108905    -0.12900
C885        C  0.13517746  0.54740266  0.10237215    -0.16500
C886        C  0.15575804  0.56742008  0.11761775     0.07500
C887        C  0.17973340  0.58637738  0.14026885     0.09400
C888        C  0.19709915  0.60393196  0.16143343    -0.17400
C889        C  0.13265775  0.42054807  0.10311165    -0.16500
C890        C  0.15314531  0.40001132  0.11769721     0.07500
C891        C  0.17779018  0.38045720  0.13901931     0.09400
C892        C  0.19590466  0.36246873  0.15909964    -0.17400
C893        C  0.26482911  0.48456897  0.55237593    -0.16500
C894        C  0.26493853  0.48434575  0.51972930     0.07500
C895        C  0.26513076  0.48365456  0.48148004     0.09400
C896        C  0.26530872  0.48311155  0.44883532    -0.17400
C897        C  0.26543053  0.54943504  0.33630895    -0.11300
C898        C  0.26511411  0.57933982  0.32288421    -0.12900
C899        C  0.26589259  0.41687902  0.33567176    -0.11300
C900        C  0.26555832  0.38720466  0.32159319    -0.12900
C901        C  0.06655555  0.37835585  0.37073505    -0.16500
C902        C  0.08684300  0.36293575  0.35055968     0.07500
C903        C  0.10682523  0.34113933  0.32661025     0.09400
C904        C  0.12531248  0.32109386  0.30890405    -0.17400
C905        C  0.88118969  0.32961316  0.30905916    -0.16500
C906        C  0.89887871  0.35048966  0.32663958     0.07500
C907        C  0.91866419  0.37224725  0.35077850     0.09400
C908        C  0.93971511  0.38630711  0.37117229    -0.17400
C909        C  0.10068469  0.16296178  0.23979174    -0.11300
C910        C  0.07053221  0.15002458  0.23970070    -0.12900
C911        C  0.90821167  0.16515489  0.24024579    -0.11300
C912        C  0.93785211  0.15102233  0.23991740    -0.12900
C913        C  0.88556652  0.65269853  0.31408029    -0.16500
C914        C  0.90394727  0.63245124  0.33153735     0.07500
C915        C  0.92374844  0.61016417  0.35501252     0.09400
C916        C  0.94407178  0.59425663  0.37467059    -0.17400
C917        C  0.07085287  0.58583404  0.37344055    -0.16500
C918        C  0.09168170  0.59958645  0.35263626     0.07500
C919        C  0.11143976  0.62078758  0.32799472     0.09400
C920        C  0.12925304  0.64122639  0.31005788    -0.17400
C921        C  0.00397956  0.03775474  0.23905373    -0.16500
C922        C  0.00544875  0.00514366  0.23894365     0.07500
C923        C  0.00760229  0.96695377  0.23910258     0.09400
C924        C  0.00873679  0.93433372  0.23956372    -0.17400
C925        C  0.90965645  0.81097475  0.24506601    -0.11300
C926        C  0.93993433  0.82356513  0.24420452    -0.12900
C927        C  0.10198914  0.80525449  0.24121246    -0.11300
C928        C  0.07251102  0.81972588  0.24113717    -0.12900
C929        C  0.00567972  0.56469405  0.51847970    -0.11300
C930        C  0.00641975  0.56523999  0.48585746    -0.12900
C931        C  0.12701701  0.64415344  0.69216663    -0.16500
C932        C  0.10868838  0.62352345  0.67496965     0.07500
C933        C  0.08853988  0.60134926  0.65154009     0.09400
C934        C  0.06776570  0.58634611  0.63154698    -0.17400
C935        C  0.94071767  0.58695286  0.63013151    -0.16500
C936        C  0.92003639  0.60170614  0.65040579     0.07500
C937        C  0.90024205  0.62340248  0.67460862     0.09400
C938        C  0.88231843  0.64388796  0.69239902    -0.17400
C939        C  0.07256169  0.81885950  0.76130931    -0.11300
C940        C  0.10235487  0.80512142  0.76079346    -0.12900
C941        C  0.93993509  0.81890225  0.76223329    -0.11300
C942        C  0.90993870  0.80559743  0.76193263    -0.12900
C943        C  0.00493830  0.40493841  0.48325610    -0.11300
C944        C  0.00527114  0.40471569  0.51589599    -0.12900
C945        C  0.12917607  0.32161487  0.68756780    -0.16500
C946        C  0.11125887  0.34223774  0.67000909     0.07500
C947        C  0.09153118  0.36435132  0.64623062     0.09400
C948        C  0.07081161  0.37959507  0.62641465    -0.17400
C949        C  0.94383066  0.38134266  0.62918787    -0.16500
C950        C  0.92342665  0.36656070  0.64968222     0.07500
C951        C  0.90368438  0.34475143  0.67375691     0.09400
C952        C  0.88550752  0.32439424  0.69138469    -0.17400
C953        C  0.00610418  0.93164621  0.76323872    -0.16500
C954        C  0.00549414  0.96428721  0.76324874     0.07500
C955        C  0.00466035  0.00253240  0.76289683     0.09400
C956        C  0.00430057  0.03517167  0.76227134    -0.17400
C957        C  0.10264316  0.15950697  0.75624771    -0.11300
C958        C  0.07250265  0.14654503  0.75718231    -0.12900
C959        C  0.91023543  0.16338010  0.75989957    -0.11300
C960        C  0.93985999  0.14921860  0.76003637    -0.12900
C961        C  0.31437060  0.10428614  0.33644550    -0.16500
C962        C  0.33159909  0.08652570  0.35748452     0.07500
C963        C  0.35521004  0.06747222  0.38037040     0.09400
C964        C  0.37538867  0.04754116  0.39617494    -0.17400
C965        C  0.37701627  0.92072777  0.39736165    -0.16500
C966        C  0.35679210  0.90010013  0.38239965     0.07500
C967        C  0.33263633  0.88032380  0.36059073     0.09400
C968        C  0.31489742  0.86214728  0.34024356    -0.17400
C969        C  0.24821675  0.04931089  0.16414322    -0.11300
C970        C  0.24814154  0.07952362  0.17690503    -0.12900
C971        C  0.24676314  0.88679652  0.17857429    -0.11300
C972        C  0.24688579  0.91663842  0.16497260    -0.12900
C973        C  0.63510905  0.04657734  0.60616067    -0.16500
C974        C  0.65515219  0.06694562  0.62168646     0.07500
C975        C  0.67899216  0.08673533  0.64379326     0.09400
C976        C  0.69657865  0.10511483  0.66407015    -0.17400
C977        C  0.63575092  0.91974307  0.60231753    -0.16500
C978        C  0.65607648  0.89935118  0.61736393     0.07500
C979        C  0.67996587  0.88004925  0.63980221     0.09400
C980        C  0.69731732  0.86242584  0.66089101    -0.17400
C981        C  0.76391066  0.05194405  0.83651339    -0.11300
C982        C  0.76391145  0.08189891  0.82321413    -0.12900
C983        C  0.76451143  0.88924631  0.82355810    -0.11300
C984        C  0.76442849  0.91931120  0.83668733    -0.12900
C985        C  0.34404603  0.29357904  0.11911368    -0.16500
C986        C  0.36501947  0.31045602  0.10094645     0.07500
C987        C  0.38780825  0.33344898  0.08105790     0.09400
C988        C  0.40341554  0.35312469  0.06048957    -0.17400
C989        C  0.34677895  0.29102732  0.87547797    -0.16500
C990        C  0.36722837  0.30890888  0.89341678     0.07500
C991        C  0.38898445  0.33328519  0.91301683     0.09400
C992        C  0.40383100  0.35374621  0.93351937    -0.17400
C993        C  0.18426220  0.22676496  0.09365725    -0.11300
C994        C  0.17118659  0.22632102  0.06356606    -0.12900
C995        C  0.17090544  0.22288086  0.93089754    -0.11300
C996        C  0.18446996  0.22254974  0.90102173    -0.12900
C997        C  0.61102823  0.61700000  0.06383160    -0.16500
C998        C  0.62629530  0.63731686  0.08414781     0.07500
C999        C  0.64809512  0.66129299  0.10414254     0.09400
C1000       C  0.66824683  0.67889601  0.12265840    -0.17400
C1001       C  0.60491799  0.61584215  0.93691683    -0.16500
C1002       C  0.61943877  0.63593853  0.91594871     0.07500
C1003       C  0.64166821  0.65959557  0.89617164     0.09400
C1004       C  0.66284145  0.67675984  0.87848902    -0.17400
C1005       C  0.82748579  0.74573820  0.09909832    -0.11300
C1006       C  0.84075059  0.74540051  0.06910365    -0.12900
C1007       C  0.84042518  0.74402486  0.93638145    -0.11300
C1008       C  0.82699715  0.74373476  0.90641775    -0.12900
C1009       C  0.49062905  0.98330686  0.58031526    -0.11300
C1010       C  0.52327798  0.98328463  0.58054496    -0.12900
C1011       C  0.37748354  0.04706680  0.59722181    -0.16500
C1012       C  0.35701366  0.06782558  0.61157802     0.07500
C1013       C  0.33315414  0.08735554  0.63387269     0.09400
C1014       C  0.31586102  0.10492066  0.65508778    -0.17400
C1015       C  0.31721958  0.86361165  0.66713279    -0.16500
C1016       C  0.33511642  0.88181468  0.64706475     0.07500
C1017       C  0.35913406  0.90104049  0.62476731     0.09400
C1018       C  0.37913436  0.92078320  0.60850028    -0.17400
C1019       C  0.24753850  0.98257334  0.05204174    -0.16500
C1020       C  0.24732634  0.98339126  0.01945240     0.07500
C1021       C  0.24712618  0.98456971  0.98129205     0.09400
C1022       C  0.24703371  0.98508493  0.94869409    -0.17400
C1023       C  0.24636140  0.07817673  0.81991835    -0.11300
C1024       C  0.24617704  0.04880052  0.83441444    -0.12900
C1025       C  0.24768752  0.91656539  0.83761737    -0.11300
C1026       C  0.24794747  0.88649145  0.82464017    -0.12900
C1027       C  0.48827199  0.98611473  0.42093286    -0.11300
C1028       C  0.52091941  0.98679176  0.42127899    -0.12900
C1029       C  0.63210306  0.05141041  0.39602697    -0.16500
C1030       C  0.65219725  0.07153272  0.38030587     0.07500
C1031       C  0.67631470  0.09090632  0.35818100     0.09400
C1032       C  0.69418704  0.10893347  0.33789386    -0.17400
C1033       C  0.63453718  0.92481296  0.40193170    -0.16500
C1034       C  0.65495917  0.90455299  0.38683181     0.07500
C1035       C  0.67868505  0.88540399  0.36409403     0.09400
C1036       C  0.69591727  0.86784076  0.34284506    -0.17400
C1037       C  0.76391256  0.98585320  0.94913187    -0.16500
C1038       C  0.76405602  0.98579924  0.98173281     0.07500
C1039       C  0.76426780  0.98580770  0.01991268     0.09400
C1040       C  0.76443228  0.98604839  0.05251443    -0.17400
C1041       C  0.76455835  0.08428341  0.17729646    -0.11300
C1042       C  0.76485852  0.05435154  0.16395761    -0.12900
C1043       C  0.76416846  0.89254489  0.18053925    -0.11300
C1044       C  0.76442165  0.92208634  0.16642251    -0.12900
C1045       C  0.58576557  0.47133411  0.00225170    -0.11300
C1046       C  0.58577445  0.50399316  0.00219597    -0.12900
C1047       C  0.60431850  0.35813361  0.06549424    -0.16500
C1048       C  0.61890508  0.33749626  0.08589998     0.07500
C1049       C  0.64124919  0.31342987  0.10507014     0.09400
C1050       C  0.66249678  0.29608987  0.12251063    -0.17400
C1051       C  0.61156329  0.35949254  0.93886194    -0.16500
C1052       C  0.62706177  0.33904316  0.91890831     0.07500
C1053       C  0.64884363  0.31450979  0.89965145     0.09400
C1054       C  0.66884855  0.29635302  0.88157674    -0.17400
C1055       C  0.95507641  0.22374304  0.00087762    -0.16500
C1056       C  0.98767711  0.22336196  0.00005563     0.07500
C1057       C  0.02585640  0.22329509  0.99873644     0.09400
C1058       C  0.05845467  0.22349592  0.99779440    -0.17400
C1059       C  0.82806560  0.22734134  0.09662543    -0.11300
C1060       C  0.84223218  0.22662602  0.06708423    -0.12900
C1061       C  0.82878052  0.22770583  0.90500119    -0.11300
C1062       C  0.84245152  0.22716469  0.93478162    -0.12900
C1063       C  0.42654038  0.49833604  0.99939223    -0.11300
C1064       C  0.42661626  0.46569382  0.99830038    -0.12900
C1065       C  0.40297316  0.60912094  0.06588302    -0.16500
C1066       C  0.38804391  0.62971198  0.08616013     0.07500
C1067       C  0.36643456  0.65459299  0.10524696     0.09400
C1068       C  0.34617736  0.67297640  0.12285478    -0.17400
C1069       C  0.40408023  0.61219378  0.93907801    -0.16500
C1070       C  0.38874521  0.63263754  0.91906181     0.07500
C1071       C  0.36610694  0.65636197  0.89988440     0.09400
C1072       C  0.34506925  0.67354906  0.88208898    -0.17400
C1073       C  0.95317691  0.74569940  0.00259523    -0.16500
C1074       C  0.98578177  0.74610066  0.00245201     0.07500
C1075       C  0.02397267  0.74630049  0.00218583     0.09400
C1076       C  0.05657745  0.74606791  0.00195842    -0.17400
C1077       C  0.16947936  0.74345632  0.06777939    -0.11300
C1078       C  0.18335951  0.74291938  0.09746090    -0.12900
C1079       C  0.16904039  0.74217216  0.93548904    -0.11300
C1080       C  0.18287716  0.74142482  0.90580704    -0.12900
loop_ 
_geom_bond_atom_site_label_1 
_geom_bond_atom_site_label_2 
_geom_bond_distance 
_geom_bond_site_symmetry_2 
_ccdc_geom_bond_type 
C1            N2   1.364   1_556  A
C1            N6   1.357       .  A
C1         C1079   1.445       .  S
N2            C3   1.363       .  A
C3            N4   1.357       .  A
C3         C1077   1.445       .  S
N4            C5   1.356       .  A
C5            N6   1.356   1_554  A
C5         C1076   1.436       .  S
C7            N8   1.359       .  A
C7           N12   1.347       .  A
C7         C1065   1.428       .  S
N8            C9   1.363       .  A
C9           N10   1.361   1_554  A
C9         C1063   1.439   1_554  S
N10          C11   1.358       .  A
C11          N12   1.346   1_556  A
C11        C1069   1.426       .  S
C13          N14   1.364       .  A
C13          N18   1.358       .  A
C13        C1060   1.446       .  S
N14          C15   1.363   1_554  A
C15          N16   1.357       .  A
C15        C1062   1.445       .  S
N16          C17   1.356   1_556  A
C17          N18   1.357       .  A
C17        C1055   1.437       .  S
C19          N20   1.346   1_556  A
C19          N24   1.358       .  A
C19        C1051   1.427       .  S
N20          C21   1.347       .  A
C21          N22   1.359       .  A
C21        C1047   1.427       .  S
N22          C23   1.362       .  A
C23          N24   1.362   1_554  A
C23        C1045   1.439       .  S
C25          N26   1.364       .  A
C25          N30   1.357       .  A
C25        C1044   1.445       .  S
N26          C27   1.364   1_565  A
C27          N28   1.357       .  A
C27        C1042   1.445       .  S
N28          C29   1.356   1_545  A
C29          N30   1.356       .  A
C29        C1040   1.436       .  S
C31          N32   1.347   1_545  A
C31          N36   1.359       .  A
C31        C1029   1.427       .  S
N32          C33   1.347       .  A
C33          N34   1.358       .  A
C33        C1033   1.427       .  S
N34          C35   1.362       .  A
C35          N36   1.362   1_565  A
C35        C1028   1.439       .  S
C37          N38   1.364   1_545  A
C37          N42   1.358       .  A
C37        C1024   1.446       .  S
N38          C39   1.363       .  A
C39          N40   1.356       .  A
C39        C1025   1.444       .  S
N40          C41   1.355       .  A
C41          N42   1.357   1_565  A
C41        C1022   1.436       .  S
C43          N44   1.347       .  A
C43          N48   1.358       .  A
C43        C1018   1.426       .  S
N44          C45   1.347   1_565  A
C45          N46   1.359       .  A
C45        C1011   1.427       .  S
N46          C47   1.362   1_545  A
C47          N48   1.361       .  A
C47        C1009   1.439       .  S
C49          N50   1.357       .  A
C49          N54   1.365       .  A
C49        C1006   1.448       .  S
N50          C51   1.356       .  A
C51          N52   1.356   1_554  A
C51        C1073   1.436       .  S
N52          C53   1.357       .  A
C53          N54   1.365   1_556  A
C53        C1007   1.449       .  S
C55          N56   1.347       .  A
C55          N60   1.359       .  A
C55         C997   1.427       .  S
N56          C57   1.347   1_554  A
C57          N58   1.358       .  A
C57        C1001   1.426       .  S
N58          C59   1.362   1_556  A
C59          N60   1.362       .  A
C59        C1046   1.439       .  S
C61          N62   1.358       .  A
C61          N66   1.365       .  A
C61         C995   1.449       .  S
N62          C63   1.357       .  A
C63          N64   1.355   1_556  A
C63        C1058   1.437       .  S
N64          C65   1.356       .  A
C65          N66   1.365   1_554  A
C65         C994   1.447       .  S
C67          N68   1.359       .  A
C67          N72   1.347       .  A
C67         C992   1.428       .  S
N68          C69   1.363       .  A
C69          N70   1.361   1_556  A
C69        C1064   1.439       .  S
N70          C71   1.358       .  A
C71          N72   1.347   1_554  A
C71         C988   1.426       .  S
C73          N74   1.357       .  A
C73          N78   1.365       .  A
C73         C984   1.447       .  S
N74          C75   1.356       .  A
C75          N76   1.356   1_565  A
C75        C1037   1.435       .  S
N76          C77   1.357       .  A
C77          N78   1.365   1_545  A
C77         C981   1.447       .  S
C79          N80   1.358       .  A
C79          N84   1.347   1_545  A
C79         C973   1.426       .  S
N80          C81   1.362   1_545  A
C81          N82   1.362       .  A
C81        C1010   1.439       .  S
N82          C83   1.359       .  A
C83          N84   1.347       .  A
C83         C977   1.427       .  S
C85          N86   1.365   1_545  A
C85          N90   1.356       .  A
C85         C969   1.446       .  S
N86          C87   1.365       .  A
C87          N88   1.358       .  A
C87         C972   1.448       .  S
N88          C89   1.357       .  A
C89          N90   1.355   1_565  A
C89        C1019   1.435       .  S
C91          N92   1.347       .  A
C91          N96   1.359       .  A
C91         C965   1.427       .  S
N92          C93   1.347   1_565  A
C93          N94   1.358       .  A
C93         C964   1.426       .  S
N94          C95   1.362   1_545  A
C95          N96   1.362       .  A
C95        C1027   1.439       .  S
C97          N98   1.365   1_655  A
C97         N102   1.359       .  A
C97         C960   1.451       .  S
N98          C99   1.365       .  A
C99         N100   1.357       .  A
C99         C958   1.448       .  S
N100        C101   1.356       .  A
C101        N102   1.358   1_455  A
C101        C956   1.439       .  S
C103        N104   1.347   1_655  A
C103        N108   1.358       .  A
C103        C949   1.427       .  S
N104        C105   1.347       .  A
C105        N106   1.358       .  A
C105        C948   1.426       .  S
N106        C107   1.361       .  A
C107        N108   1.362   1_455  A
C107        C944   1.438       .  S
C109        N110   1.365       .  A
C109        N114   1.358       .  A
C109        C939   1.449       .  S
N110        C111   1.365   1_455  A
C111        N112   1.357       .  A
C111        C941   1.448       .  S
N112        C113   1.356   1_655  A
C113        N114   1.357       .  A
C113        C953   1.439       .  S
C115        N116   1.359       .  A
C115        N120   1.347   1_655  A
C115        C935   1.428       .  S
N116        C117   1.362   1_655  A
C117        N118   1.361       .  A
C117        C929   1.437       .  S
N118        C119   1.357       .  A
C119        N120   1.347       .  A
C119        C934   1.425       .  S
C121        N122   1.365       .  A
C121        N126   1.360       .  A
C121        C928   1.451       .  S
N122        C123   1.365   1_455  A
C123        N124   1.356       .  A
C123        C926   1.447       .  S
N124        C125   1.355   1_655  A
C125        N126   1.358       .  A
C125        C924   1.438       .  S
C127        N128   1.347       .  A
C127        N132   1.359       .  A
C127        C917   1.427       .  S
N128        C129   1.347   1_455  A
C129        N130   1.357       .  A
C129        C916   1.424       .  S
N130        C131   1.361   1_655  A
C131        N132   1.363       .  A
C131        C930   1.437       .  S
C133        N134   1.360       .  A
C133        N138   1.366   1_655  A
C133        C912   1.451       .  S
N134        C135   1.358   1_655  A
C135        N136   1.355       .  A
C135        C921   1.438       .  S
N136        C137   1.356       .  A
C137        N138   1.365       .  A
C137        C910   1.447       .  S
C139        N140   1.358       .  A
C139        N144   1.347       .  A
C139        C901   1.428       .  S
N140        C141   1.362       .  A
C141        N142   1.361   1_455  A
C141        C943   1.438       .  S
N142        C143   1.358       .  A
C143        N144   1.347   1_655  A
C143        C908   1.426       .  S
C145        N146   1.365       .  A
C145        N150   1.357       .  A
C145        C897   1.447       .  S
N146        C147   1.365       .  A
C147        N148   1.359       .  A
C147        C899   1.449       .  S
N148        C149   1.358       .  A
C149        N150   1.356       .  A
C149        C896   1.438       .  S
C151        N152   1.358       .  A
C151        N156   1.347       .  A
C151        C889   1.426       .  S
N152        C153   1.362       .  A
C153        N154   1.361       .  A
C153        C884   1.437       .  S
N154        C155   1.358       .  A
C155        N156   1.347       .  A
C155        C885   1.425       .  S
O157       Zr193   2.458       .  S
O157        C168   1.294       .  A
O158       Zr192   2.460       .  S
O158        C169   1.295       .  A
O159       Zr165   2.462       .  S
O159        C170   1.295       .  A
O160       Zr165   2.465       .  S
O160        C171   1.296       .  A
O161       Zr195   2.401       .  S
O161        C171   1.284       .  A
O162       Zr194   2.445       .  S
O162        C170   1.292       .  A
O163       Zr165   2.407       .  S
O163        C169   1.285       .  A
O164       Zr165   2.442       .  S
O164        C168   1.291       .  A
Zr165       O166   2.346       .  S
Zr165       O167   2.346       .  S
Zr165       O175   2.332       .  S
Zr165       O173   2.345       .  S
O166       Zr192   2.334       .  S
O166       Zr195   2.339       .  S
O167       Zr193   2.344       .  S
O167       Zr194   2.343       .  S
C168       C1078   1.445       .  S
C169        C876   1.427       .  S
C170        C971   1.448       .  S
C171       C1068   1.429       .  S
H172        O173   0.965       .  S
O173       Zr192   2.350       .  S
O173       Zr194   2.335       .  S
H174        O175   0.965       .  S
O175       Zr193   2.347       .  S
O175       Zr195   2.352       .  S
O176       Zr192   2.466       .  S
O176        C199   1.296       .  A
O177       Zr193   2.461       .  S
O177        C200   1.295       .  A
O178       Zr194   2.458       .  S
O178        C201   1.294       .  A
O179       Zr195   2.463       .  S
O179        C202   1.295       .  A
O180       Zr195   2.460       .  S
O180        C203   1.295       .  A
O181       Zr194   2.460       .  S
O181        C204   1.295       .  A
O182       Zr196   2.455       .  S
O182        C205   1.294       .  A
O183       Zr196   2.463       .  S
O183        C206   1.295       .  A
O184       Zr194   2.409       .  S
O184        C205   1.285       .  A
O185       Zr195   2.440       .  S
O185        C206   1.290       .  A
O186       Zr192   2.403       .  S
O186        C201   1.284       .  A
O187       Zr193   2.452       .  S
O187        C204   1.293       .  A
O188       Zr193   2.407       .  S
O188        C203   1.285       .  A
O189       Zr192   2.435       .  S
O189        C202   1.290       .  A
O190       Zr196   2.438       .  S
O190        C199   1.290       .  A
O191       Zr196   2.402       .  S
O191        C200   1.284       .  A
Zr192       O198   2.338       .  S
Zr192       O210   2.345       .  S
Zr193       O197   2.348       .  S
Zr193       O208   2.331       .  S
Zr194       O198   2.347       .  S
Zr194       O208   2.346       .  S
Zr195       O197   2.332       .  S
Zr195       O210   2.345       .  S
Zr196       O197   2.338       .  S
Zr196       O198   2.333       .  S
Zr196       O210   2.343       .  S
Zr196       O208   2.352       .  S
C199        C878   1.448       .  S
C200        C920   1.428       .  S
C201        C968   1.427       .  S
C202        C871   1.445       .  S
C203        C888   1.426       .  S
C204        C927   1.451       .  S
C205        C882   1.425       .  S
C206        C898   1.447       .  S
H207        O208   0.965       .  S
H209        O210   0.966       .  S
C211        N212   1.358       .  A
C211        N216   1.364       .  A
C211        C869   1.448       .  S
N212        C213   1.357       .  A
C213        N214   1.355       .  A
C213        C863   1.437       .  S
N214        C215   1.356       .  A
C215        N216   1.364       .  A
C215        C867   1.445       .  S
C217        N218   1.347       .  A
C217        N222   1.359       .  A
C217        C862   1.428       .  S
N218        C219   1.347       .  A
C219        N220   1.357       .  A
C219        C855   1.425       .  S
N220        C221   1.361       .  A
C221        N222   1.363       .  A
C221        C854   1.438   1_545  S
O223       Zr259   2.457       .  S
O223        C234   1.294       .  A
O224       Zr258   2.458       .  S
O224        C235   1.294       .  A
O225       Zr231   2.467       .  S
O225        C236   1.296       .  A
O226       Zr231   2.460       .  S
O226        C237   1.295       .  A
O227       Zr261   2.405       .  S
O227        C237   1.285       .  A
O228       Zr260   2.440       .  S
O228        C236   1.291       .  A
O229       Zr231   2.407       .  S
O229        C235   1.285       .  A
O230       Zr231   2.447       .  S
O230        C234   1.292       .  A
Zr231       O232   2.348       .  S
Zr231       O233   2.343       .  S
Zr231       O241   2.336       .  S
Zr231       O239   2.344       .  S
O232       Zr258   2.332       .  S
O232       Zr261   2.340       .  S
O233       Zr259   2.345       .  S
O233       Zr260   2.343       .  S
C234       C1023   1.446       .  S
C235        C858   1.426       .  S
C236        C957   1.448       .  S
C237       C1014   1.428       .  S
H238        O239   0.965       .  S
O239       Zr258   2.353       .  S
O239       Zr260   2.333       .  S
H240        O241   0.965       .  S
O241       Zr259   2.346       .  S
O241       Zr261   2.353       .  S
O242       Zr258   2.466       .  S
O242        C265   1.296       .  A
O243       Zr259   2.459       .  S
O243        C266   1.295       .  A
O244       Zr260   2.459       .  S
O244        C267   1.294       .  A
O245       Zr261   2.461       .  S
O245        C268   1.295       .  A
O246       Zr261   2.459       .  S
O246        C269   1.295       .  A
O247       Zr260   2.462       .  S
O247        C270   1.295       .  A
O248       Zr262   2.459       .  S
O248        C271   1.295       .  A
O249       Zr262   2.458       .  S
O249        C272   1.294       .  A
O250       Zr260   2.404       .  S
O250        C271   1.284       .  A
O251       Zr261   2.444       .  S
O251        C272   1.291       .  A
O252       Zr258   2.401       .  S
O252        C267   1.284       .  A
O253       Zr259   2.446       .  S
O253        C270   1.292       .  A
O254       Zr259   2.410       .  S
O254        C269   1.285       .  A
O255       Zr258   2.438       .  S
O255        C268   1.290       .  A
O256       Zr262   2.439       .  S
O256        C265   1.290       .  A
O257       Zr262   2.403       .  S
O257        C266   1.284       .  A
Zr258       O264   2.338       .  S
Zr258       O276   2.343       .  S
Zr259       O263   2.346       .  S
Zr259       O274   2.334       .  S
Zr260       O264   2.346       .  S
Zr260       O274   2.344       .  S
Zr261       O263   2.332       .  S
Zr261       O276   2.346       .  S
Zr262       O263   2.340       .  S
Zr262       O264   2.330       .  S
Zr262       O276   2.345       .  S
Zr262       O274   2.350       .  S
C265        C848   1.449       .  S
C266        C989   1.428       .  S
C267        C945   1.426       .  S
C268        C868   1.445       .  S
C269        C846   1.428       .  S
C270        C996   1.448       .  S
C271        C852   1.426       .  S
C272        C841   1.447       .  S
H273        O274   0.965       .  S
H275        O276   0.966       .  S
C277        N278   1.366       .  A
C277        N282   1.357       .  A
C277        C877   1.448       .  S
N278        C279   1.366       .  A
C279        N280   1.357       .  A
C279        C839   1.449       .  S
N280        C281   1.356       .  A
C281        N282   1.356       .  A
C281        C835   1.436       .  S
C283        N284   1.359       .  A
C283        N288   1.347       .  A
C283        C831   1.427       .  S
N284        C285   1.362       .  A
C285        N286   1.361       .  A
C285        C853   1.438       .  S
N286        C287   1.357       .  A
C287        N288   1.347       .  A
C287        C879   1.425       .  S
C289        N290   1.358       .  A
C289        N294   1.366       .  A
C289        C830   1.450       .  S
N290        C291   1.357       .  A
C291        N292   1.356       .  A
C291        C893   1.438       .  S
N292        C293   1.357       .  A
C293        N294   1.366       .  A
C293        C847   1.449       .  S
C295        N296   1.347       .  A
C295        N300   1.358       .  A
C295        C849   1.427       .  S
N296        C297   1.347       .  A
C297        N298   1.358       .  A
C297        C825   1.426       .  S
N298        C299   1.362       .  A
C299        N300   1.362       .  A
C299        C824   1.438       .  S
O301       Zr337   2.457       .  S
O301        C312   1.294       .  A
O302       Zr336   2.465       .  S
O302        C313   1.296       .  A
O303       Zr309   2.457       .  S
O303        C314   1.294       .  A
O304       Zr309   2.459       .  S
O304        C315   1.294       .  A
O305       Zr339   2.435       .  S
O305        C315   1.290       .  A
O306       Zr338   2.409       .  S
O306        C314   1.285       .  A
O307       Zr309   2.403       .  S
O307        C313   1.284       .  A
O308       Zr309   2.441       .  S
O308        C312   1.291       .  A
Zr309       O310   2.338       .  S
Zr309       O311   2.331       .  S
Zr309       O319   2.344       .  S
Zr309       O317   2.352       .  S
O310       Zr336   2.346       .  S
O310       Zr339   2.330       .  S
O311       Zr337   2.341       .  S
O311       Zr338   2.347       .  S
C312       C1080   1.445       .  S
C313        C822   1.430       .  S
C314       C1072   1.426       .  S
C315       C1026   1.443       .  S
H316        O317   0.965       .  S
O317       Zr336   2.334       .  S
O317       Zr338   2.345       .  S
H318        O319   0.966       .  S
O319       Zr337   2.344       .  S
O319       Zr339   2.343       .  S
O320       Zr336   2.468       .  S
O320        C343   1.296       .  A
O321       Zr337   2.457       .  S
O321        C344   1.294       .  A
O322       Zr338   2.461       .  S
O322        C345   1.295       .  A
O323       Zr339   2.460       .  S
O323        C346   1.295       .  A
O324       Zr339   2.462       .  S
O324        C347   1.295       .  A
O325       Zr338   2.458       .  S
O325        C348   1.294       .  A
O326       Zr340   2.464       .  S
O326        C349   1.296       .  A
O327       Zr340   2.460       .  S
O327        C350   1.295       .  A
O328       Zr338   2.447       .  S
O328        C349   1.292       .  A
O329       Zr339   2.402       .  S
O329        C350   1.284       .  A
O330       Zr336   2.440       .  S
O330        C345   1.291       .  A
O331       Zr337   2.405       .  S
O331        C348   1.284       .  A
O332       Zr337   2.444       .  S
O332        C347   1.291       .  A
O333       Zr336   2.403       .  S
O333        C346   1.284       .  A
O334       Zr340   2.440       .  S
O334        C343   1.291       .  A
O335       Zr340   2.408       .  S
O335        C344   1.285       .  A
Zr336       O342   2.345       .  S
Zr336       O354   2.344       .  S
Zr337       O341   2.332       .  S
Zr337       O352   2.351       .  S
Zr338       O342   2.344       .  S
Zr338       O352   2.335       .  S
Zr339       O341   2.340       .  S
Zr339       O354   2.349       .  S
Zr340       O341   2.347       .  S
Zr340       O342   2.345       .  S
Zr340       O354   2.336       .  S
Zr340       O352   2.344       .  S
C343        C840   1.449       .  S
C344        C931   1.426       .  S
C345        C817   1.445       .  S
C346       C1015   1.426       .  S
C347        C940   1.449       .  S
C348        C828   1.427       .  S
C349        C829   1.450       .  S
C350        C834   1.427       .  S
H351        O352   0.965       .  S
H353        O354   0.965       .  S
C355        N356   1.358       .  A
C355        N360   1.366       .  A
C355        C816   1.449       .  S
N356        C357   1.356       .  A
C357        N358   1.357       .  A
C357        C809   1.439       .  S
N358        C359   1.358       .  A
C359        N360   1.366       .  A
C359        C814   1.449       .  S
C361        N362   1.347       .  A
C361        N366   1.358       .  A
C361        C804   1.427       .  S
N362        C363   1.347       .  A
C363        N364   1.358       .  A
C363        C805   1.426       .  S
N364        C365   1.361       .  A
C365        N366   1.362       .  A
C365        C883   1.437       .  S
C367        N368   1.364       .  A
C367        N372   1.359       .  A
C367        C799   1.447       .  S
N368        C369   1.364       .  A
C369        N370   1.356       .  A
C369        C872   1.445       .  S
N370        C371   1.355       .  A
C371        N372   1.357       .  A
C371        C798   1.437       .  S
C373        N374   1.359       .  A
C373        N378   1.347       .  A
C373        C794   1.428       .  S
N374        C375   1.363       .  A
C375        N376   1.362       .  A
C375        C790   1.440       .  S
N376        C377   1.358       .  A
C377        N378   1.347       .  A
C377        C873   1.427       .  S
O379       Zr415   2.457       .  S
O379        C390   1.294       .  A
O380       Zr414   2.459       .  S
O380        C391   1.295       .  A
O381       Zr387   2.461       .  S
O381        C392   1.295       .  A
O382       Zr387   2.466       .  S
O382        C393   1.296       .  A
O383       Zr417   2.436       .  S
O383        C393   1.290       .  A
O384       Zr416   2.409       .  S
O384        C392   1.285       .  A
O385       Zr387   2.403       .  S
O385        C391   1.284       .  A
O386       Zr387   2.442       .  S
O386        C390   1.291       .  A
Zr387       O388   2.338       .  S
Zr387       O389   2.333       .  S
Zr387       O397   2.345       .  S
Zr387       O395   2.354       .  S
O388       Zr414   2.347       .  S
O388       Zr417   2.331       .  S
O389       Zr415   2.340       .  S
O389       Zr416   2.347       .  S
C390       C1043   1.445       .  S
C391        C785   1.427       .  S
C392       C1036   1.428       .  S
C393        C925   1.447       .  S
H394        O395   0.965       .  S
O395       Zr414   2.334       .  S
O395       Zr416   2.345       .  S
H396        O397   0.966       .  S
O397       Zr415   2.345       .  S
O397       Zr417   2.343       .  S
O398       Zr414   2.466       .  S
O398        C421   1.296       .  A
O399       Zr415   2.458       .  S
O399        C422   1.294       .  A
O400       Zr416   2.461       .  S
O400        C423   1.295       .  A
O401       Zr417   2.457       .  S
O401        C424   1.294       .  A
O402       Zr417   2.462       .  S
O402        C425   1.295       .  A
O403       Zr416   2.460       .  S
O403        C426   1.295       .  A
O404       Zr418   2.457       .  S
O404        C427   1.294       .  A
O405       Zr418   2.459       .  S
O405        C428   1.295       .  A
O406       Zr416   2.447       .  S
O406        C427   1.292       .  A
O407       Zr417   2.401       .  S
O407        C428   1.284       .  A
O408       Zr414   2.443       .  S
O408        C423   1.291       .  A
O409       Zr415   2.404       .  S
O409        C426   1.284       .  A
O410       Zr415   2.440       .  S
O410        C425   1.291       .  A
O411       Zr414   2.403       .  S
O411        C424   1.284       .  A
O412       Zr418   2.443       .  S
O412        C421   1.291       .  A
O413       Zr418   2.409       .  S
O413        C422   1.285       .  A
Zr414       O420   2.342       .  S
Zr414       O432   2.343       .  S
Zr415       O419   2.331       .  S
Zr415       O430   2.350       .  S
Zr416       O420   2.344       .  S
Zr416       O430   2.335       .  S
Zr417       O419   2.338       .  S
Zr417       O432   2.350       .  S
Zr418       O419   2.345       .  S
Zr418       O420   2.344       .  S
Zr418       O432   2.333       .  S
Zr418       O430   2.346       .  S
C421        C813   1.449       .  S
C422       C1000   1.427       .  S
C423        C783   1.446       .  S
C424        C913   1.424       .  S
C425       C1005   1.448       .  S
C426        C791   1.428       .  S
C427        C800   1.447       .  S
C428        C801   1.427       .  S
H429        O430   0.965       .  S
H431        O432   0.965       .  S
C433        N434   1.357       .  A
C433        N438   1.364       .  A
C433        C781   1.447       .  S
N434        C435   1.356       .  A
C435        N436   1.356       .  A
C435        C838   1.436       .  S
N436        C437   1.357       .  A
C437        N438   1.364       .  A
C437        C784   1.446       .  S
C439        N440   1.358       .  A
C439        N444   1.347       .  A
C439        C780   1.427       .  S
N440        C441   1.362       .  A
C441        N442   1.362       .  A
C441        C775   1.438       .  S
N442        C443   1.358       .  A
C443        N444   1.347       .  A
C443        C788   1.426       .  S
C445        N446   1.364       .  A
C445        N450   1.358       .  A
C445        C773   1.446       .  S
N446        C447   1.364       .  A
C447        N448   1.357       .  A
C447        C818   1.445       .  S
N448        C449   1.356       .  A
C449        N450   1.357       .  A
C449        C772   1.436       .  S
C451        N452   1.347       .  A
C451        N456   1.359       .  A
C451        C819   1.429       .  S
N452        C453   1.347       .  A
C453        N454   1.358       .  A
C453        C765   1.427       .  S
N454        C455   1.362       .  A
C455        N456   1.363       .  A
C455        C789   1.440       .  S
C457        N458   1.365       .  A
C457        N462   1.358       .  A
C457        C762   1.448       .  S
N458        C459   1.364       .  A
C459        N460   1.358       .  A
C459        C764   1.448       .  S
N460        C461   1.357       .  A
C461        N462   1.357       .  A
C461        C812   1.439       .  S
C463        N464   1.347       .  A
C463        N468   1.358       .  A
C463        C757   1.427       .  S
N464        C465   1.347       .  A
C465        N466   1.358       .  A
C465        C753   1.426       .  S
N466        C467   1.362       .  A
C467        N468   1.362       .  A
C467        C823   1.438       .  S
O469       Zr505   2.466       .  S
O469        C480   1.296       .  A
O470       Zr504   2.460       .  S
O470        C481   1.295       .  A
O471       Zr477   2.465       .  S
O471        C482   1.296       .  A
O472       Zr477   2.458       .  S
O472        C483   1.294       .  A
O473       Zr507   2.405       .  S
O473        C483   1.284       .  A
O474       Zr506   2.440       .  S
O474        C482   1.291       .  A
O475       Zr477   2.409       .  S
O475        C481   1.285       .  A
O476       Zr477   2.443       .  S
O476        C480   1.291       .  A
Zr477       O478   2.347       .  S
Zr477       O479   2.344       .  S
Zr477       O487   2.338       .  S
Zr477       O485   2.343       .  S
O478       Zr504   2.330       .  S
O478       Zr507   2.341       .  S
O479       Zr505   2.345       .  S
O479       Zr506   2.344       .  S
C480       C1008   1.449       .  S
C481        C768   1.428       .  S
C482        C983   1.447       .  S
C483       C1004   1.427       .  S
H484        O485   0.965       .  S
O485       Zr504   2.351       .  S
O485       Zr506   2.335       .  S
H486        O487   0.965       .  S
O487       Zr505   2.344       .  S
O487       Zr507   2.351       .  S
O488       Zr504   2.459       .  S
O488        C511   1.294       .  A
O489       Zr505   2.462       .  S
O489        C512   1.295       .  A
O490       Zr506   2.459       .  S
O490        C513   1.295       .  A
O491       Zr507   2.456       .  S
O491        C514   1.294       .  A
O492       Zr507   2.460       .  S
O492        C515   1.295       .  A
O493       Zr506   2.466       .  S
O493        C516   1.296       .  A
O494       Zr508   2.461       .  S
O494        C517   1.295       .  A
O495       Zr508   2.460       .  S
O495        C518   1.295       .  A
O496       Zr506   2.403       .  S
O496        C517   1.284       .  A
O497       Zr507   2.443       .  S
O497        C518   1.291       .  A
O498       Zr504   2.404       .  S
O498        C513   1.284       .  A
O499       Zr505   2.441       .  S
O499        C516   1.291       .  A
O500       Zr505   2.406       .  S
O500        C515   1.285       .  A
O501       Zr504   2.442       .  S
O501        C514   1.291       .  A
O502       Zr508   2.443       .  S
O502        C511   1.291       .  A
O503       Zr508   2.403       .  S
O503        C512   1.284       .  A
Zr504       O510   2.340       .  S
Zr504       O522   2.344       .  S
Zr505       O509   2.346       .  S
Zr505       O520   2.337       .  S
Zr506       O510   2.346       .  S
Zr506       O520   2.343       .  S
Zr507       O509   2.330       .  S
Zr507       O522   2.345       .  S
Zr508       O509   2.341       .  S
Zr508       O510   2.329       .  S
Zr508       O522   2.344       .  S
Zr508       O520   2.352       .  S
C511        C782   1.447       .  S
C512        C938   1.428       .  S
C513        C980   1.428       .  S
C514        C774   1.445       .  S
C515        C760   1.427       .  S
C516        C942   1.448       .  S
C517        C777   1.427       .  S
C518        C763   1.448       .  S
H519        O520   0.965       .  S
H521        O522   0.966       .  S
C523        N524   1.359       .  A
C523        N528   1.364       .  A
C523        C750   1.447       .  S
N524        C525   1.357       .  A
C525        N526   1.355       .  A
C525        C795   1.437       .  S
N526        C527   1.356       .  A
C527        N528   1.364       .  A
C527        C752   1.445       .  S
C529        N530   1.358       .  A
C529        N534   1.347       .  A
C529        C748   1.428       .  S
N530        C531   1.362       .  A
C531        N532   1.363       .  A
C531        C740   1.440       .  S
N532        C533   1.360       .  A
C533        N534   1.347       .  A
C533        C744   1.428       .  S
O535       Zr571   2.457       .  S
O535        C546   1.294       .  A
O536       Zr570   2.464       .  S
O536        C547   1.296       .  A
O537       Zr543   2.459       .  S
O537        C548   1.295       .  A
O538       Zr543   2.458       .  S
O538        C549   1.294       .  A
O539       Zr573   2.405       .  S
O539        C549   1.284       .  A
O540       Zr572   2.440       .  S
O540        C548   1.291       .  A
O541       Zr543   2.405       .  S
O541        C547   1.285       .  A
O542       Zr543   2.446       .  S
O542        C546   1.292       .  A
Zr543       O544   2.346       .  S
Zr543       O545   2.342       .  S
Zr543       O553   2.332       .  S
Zr543       O551   2.344       .  S
O544       Zr570   2.332       .  S
O544       Zr573   2.337       .  S
O545       Zr571   2.342       .  S
O545       Zr572   2.342       .  S
C546       C1059   1.446       .  S
C547        C745   1.428       .  S
C548       C1041   1.444       .  S
C549       C1050   1.428       .  S
H550        O551   0.965       .  S
O551       Zr570   2.352       .  S
O551       Zr572   2.334       .  S
H552        O553   0.965       .  S
O553       Zr571   2.347       .  S
O553       Zr573   2.353       .  S
O554       Zr570   2.469       .  S
O554        C577   1.296       .  A
O555       Zr571   2.457       .  S
O555        C578   1.294       .  A
O556       Zr572   2.460       .  S
O556        C579   1.295       .  A
O557       Zr573   2.462       .  S
O557        C580   1.295       .  A
O558       Zr573   2.458       .  S
O558        C581   1.294       .  A
O559       Zr572   2.462       .  S
O559        C582   1.295       .  A
O560       Zr574   2.460       .  S
O560        C583   1.295       .  A
O561       Zr574   2.464       .  S
O561        C584   1.296       .  A
O562       Zr572   2.406       .  S
O562        C583   1.285       .  A
O563       Zr573   2.441       .  S
O563        C584   1.291       .  A
O564       Zr570   2.402       .  S
O564        C579   1.284       .  A
O565       Zr571   2.450       .  S
O565        C582   1.293       .  A
O566       Zr571   2.409       .  S
O566        C581   1.285       .  A
O567       Zr570   2.438       .  S
O567        C580   1.290       .  A
O568       Zr574   2.436       .  S
O568        C577   1.290       .  A
O569       Zr574   2.402       .  S
O569        C578   1.284       .  A
Zr570       O576   2.338       .  S
Zr570       O588   2.346       .  S
Zr571       O575   2.346       .  S
Zr571       O586   2.335       .  S
Zr572       O576   2.346       .  S
Zr572       O586   2.346       .  S
Zr573       O575   2.332       .  S
Zr573       O588   2.346       .  S
Zr574       O575   2.338       .  S
Zr574       O576   2.332       .  S
Zr574       O588   2.345       .  S
Zr574       O586   2.352       .  S
C577        C733   1.449       .  S
C578        C905   1.426       .  S
C579       C1032   1.427       .  S
C580        C751   1.446       .  S
C581        C808   1.426       .  S
C582        C911   1.451       .  S
C583        C738   1.427       .  S
C584        C815   1.449       .  S
H585        O586   0.965       .  S
H587        O588   0.966       .  S
C589        N590   1.358       .  A
C589        N594   1.364       .  A
C589        C842   1.447       .  S
N590        C591   1.357       .  A
C591        N592   1.356       .  A
C591        C769   1.437       .  S
N592        C593   1.357       .  A
C593        N594   1.364       .  A
C593        C731   1.446       .  S
C595        N596   1.359       .  A
C595        N600   1.347       .  A
C595        C843   1.427       .  S
N596        C597   1.362       .  A
C597        N598   1.362       .  A
C597        C739   1.440       .  S
N598        C599   1.359       .  A
C599        N600   1.347       .  A
C599        C730   1.428       .  S
C601        N602   1.358       .  A
C601        N606   1.366       .  A
C601        C725   1.450       .  S
N602        C603   1.357       .  A
C603        N604   1.355       .  A
C603        C866   1.436       .  S
N604        C605   1.356       .  A
C605        N606   1.366       .  A
C605        C734   1.448       .  S
C607        N608   1.358       .  A
C607        N612   1.347       .  A
C607        C735   1.427       .  S
N608        C609   1.362       .  A
C609        N610   1.361       .  A
C609        C776   1.438       .  S
N610        C611   1.358       .  A
C611        N612   1.347       .  A
C611        C724   1.425       .  S
O613       Zr649   2.458       .  S
O613        C624   1.294       .  A
O614       Zr648   2.461       .  S
O614        C625   1.295       .  A
O615       Zr621   2.462       .  S
O615        C626   1.295       .  A
O616       Zr621   2.461       .  S
O616        C627   1.295       .  A
O617       Zr651   2.440       .  S
O617        C627   1.291       .  A
O618       Zr650   2.405       .  S
O618        C626   1.284       .  A
O619       Zr621   2.404       .  S
O619        C625   1.284       .  A
O620       Zr621   2.440       .  S
O620        C624   1.291       .  A
Zr621       O622   2.339       .  S
Zr621       O623   2.330       .  S
Zr621       O631   2.346       .  S
Zr621       O629   2.352       .  S
O622       Zr648   2.345       .  S
O622       Zr651   2.331       .  S
O623       Zr649   2.341       .  S
O623       Zr650   2.347       .  S
C624       C1061   1.445       .  S
C625        C727   1.428       .  S
C626       C1054   1.427       .  S
C627        C982   1.447       .  S
H628        O629   0.965       .  S
O629       Zr648   2.337       .  S
O629       Zr650   2.345       .  S
H630        O631   0.966       .  S
O631       Zr649   2.345       .  S
O631       Zr651   2.344       .  S
O632       Zr648   2.465       .  S
O632        C655   1.296       .  A
O633       Zr649   2.460       .  S
O633        C656   1.295       .  A
O634       Zr650   2.463       .  S
O634        C657   1.295       .  A
O635       Zr651   2.458       .  S
O635        C658   1.294       .  A
O636       Zr651   2.460       .  S
O636        C659   1.295       .  A
O637       Zr650   2.458       .  S
O637        C660   1.295       .  A
O638       Zr652   2.462       .  S
O638        C661   1.295       .  A
O639       Zr652   2.454       .  S
O639        C662   1.294       .  A
O640       Zr650   2.445       .  S
O640        C661   1.292       .  A
O641       Zr651   2.405       .  S
O641        C662   1.285       .  A
O642       Zr648   2.439       .  S
O642        C657   1.291       .  A
O643       Zr649   2.404       .  S
O643        C660   1.284       .  A
O644       Zr649   2.449       .  S
O644        C659   1.292       .  A
O645       Zr648   2.406       .  S
O645        C658   1.285       .  A
O646       Zr652   2.444       .  S
O646        C655   1.291       .  A
O647       Zr652   2.407       .  S
O647        C656   1.285       .  A
Zr648       O654   2.344       .  S
Zr648       O666   2.344       .  S
Zr649       O653   2.329       .  S
Zr649       O664   2.354       .  S
Zr650       O654   2.343       .  S
Zr650       O664   2.335       .  S
Zr651       O653   2.339       .  S
Zr651       O666   2.351       .  S
Zr652       O653   2.347       .  S
Zr652       O654   2.342       .  S
Zr652       O666   2.337       .  S
Zr652       O664   2.344       .  S
C655        C726   1.449       .  S
C656        C952   1.427       .  S
C657        C732   1.446       .  S
C658        C976   1.426       .  S
C659        C959   1.450       .  S
C660        C756   1.427       .  S
C661        C761   1.448       .  S
C662        C721   1.426       .  S
H663        O664   0.965       .  S
H665        O666   0.965       .  S
O667       Zr703   2.466       .  S
O667        C678   1.296       .  A
O668       Zr702   2.462       .  S
O668        C679   1.295       .  A
O669       Zr675   2.458       .  S
O669        C680   1.294       .  A
O670       Zr675   2.465       .  S
O670        C681   1.296       .  A
O671       Zr705   2.435       .  S
O671        C681   1.290       .  A
O672       Zr704   2.410       .  S
O672        C680   1.285       .  A
O673       Zr675   2.404       .  S
O673        C679   1.284       .  A
O674       Zr675   2.437       .  S
O674        C678   1.290       .  A
Zr675       O676   2.336       .  S
Zr675       O677   2.334       .  S
Zr675       O685   2.346       .  S
Zr675       O683   2.352       .  S
O676       Zr702   2.345       .  S
O676       Zr705   2.332       .  S
O677       Zr703   2.339       .  S
O677       Zr704   2.346       .  S
C678        C993   1.447       .  S
C679        C741   1.429       .  S
C680        C985   1.427       .  S
C681        C970   1.446       .  S
H682        O683   0.965       .  S
O683       Zr702   2.333       .  S
O683       Zr704   2.348       .  S
H684        O685   0.966       .  S
O685       Zr703   2.346       .  S
O685       Zr705   2.345       .  S
O686       Zr702   2.459       .  S
O686        C709   1.295       .  A
O687       Zr703   2.462       .  S
O687        C710   1.295       .  A
O688       Zr704   2.456       .  S
O688        C711   1.294       .  A
O689       Zr705   2.459       .  S
O689        C712   1.295       .  A
O690       Zr705   2.466       .  S
O690        C713   1.296       .  A
O691       Zr704   2.458       .  S
O691        C714   1.294       .  A
O692       Zr706   2.461       .  S
O692        C715   1.295       .  A
O693       Zr706   2.462       .  S
O693        C716   1.295       .  A
O694       Zr704   2.448       .  S
O694        C715   1.292       .  A
O695       Zr705   2.400       .  S
O695        C716   1.284       .  A
O696       Zr702   2.448       .  S
O696        C711   1.292       .  A
O697       Zr703   2.401       .  S
O697        C714   1.284       .  A
O698       Zr703   2.437       .  S
O698        C713   1.290       .  A
O699       Zr702   2.407       .  S
O699        C712   1.285       .  A
O700       Zr706   2.447       .  S
O700        C709   1.292       .  A
O701       Zr706   2.407       .  S
O701        C710   1.285       .  A
Zr702       O708   2.344       .  S
Zr702       O720   2.347       .  S
Zr703       O707   2.333       .  S
Zr703       O718   2.352       .  S
Zr704       O708   2.343       .  S
Zr704       O718   2.334       .  S
Zr705       O707   2.337       .  S
Zr705       O720   2.352       .  S
Zr706       O707   2.347       .  S
Zr706       O708   2.344       .  S
Zr706       O720   2.332       .  S
Zr706       O718   2.346       .  S
C709        C870   1.447       .  S
C710        C904   1.428       .  S
C711        C749   1.447       .  S
C712        C961   1.426       .  S
C713        C909   1.448       .  S
C714        C892   1.426       .  S
C715        C900   1.449       .  S
C716        C859   1.428       .  S
H717        O718   0.965       .  S
H719        O720   0.965       .  S
C721        C722   1.201       .  T
C722        C723   1.405       .  S
C723        C724   1.201       .  T
C725        C726   1.214       .  T
C727        C728   1.203       .  T
C728        C729   1.408       .  S
C729        C730   1.202       .  T
C731        C732   1.212       .  T
C733        C734   1.214       .  T
C735        C736   1.202       .  T
C736        C737   1.406       .  S
C737        C738   1.202       .  T
C739        C740   1.209   1_556  T
C741        C742   1.204       .  T
C742        C743   1.409       .  S
C743        C744   1.203       .  T
C745        C746   1.203       .  T
C746        C747   1.408       .  S
C747        C748   1.202       .  T
C749        C750   1.213       .  T
C751        C752   1.212       .  T
C753        C754   1.202       .  T
C754        C755   1.406       .  S
C755        C756   1.202       .  T
C757        C758   1.202       .  T
C758        C759   1.407       .  S
C759        C760   1.202       .  T
C761        C762   1.214       .  T
C763        C764   1.213       .  T
C765        C766   1.202       .  T
C766        C767   1.407       .  S
C767        C768   1.202       .  T
C769        C770   1.206       .  T
C770        C771   1.413       .  S
C771        C772   1.206       .  T
C773        C774   1.212       .  T
C775        C776   1.207   1_565  T
C777        C778   1.202       .  T
C778        C779   1.407       .  S
C779        C780   1.202       .  T
C781        C782   1.213       .  T
C783        C784   1.213       .  T
C785        C786   1.202       .  T
C786        C787   1.406       .  S
C787        C788   1.201       .  T
C789        C790   1.208   1_556  T
C791        C792   1.203       .  T
C792        C793   1.408       .  S
C793        C794   1.202       .  T
C795        C796   1.206       .  T
C796        C797   1.413       .  S
C797        C798   1.206       .  T
C799        C800   1.213       .  T
C801        C802   1.202       .  T
C802        C803   1.406       .  S
C803        C804   1.202       .  T
C805        C806   1.201       .  T
C806        C807   1.405       .  S
C807        C808   1.201       .  T
C809        C810   1.207       .  T
C810        C811   1.415       .  S
C811        C812   1.207       .  T
C813        C814   1.214       .  T
C815        C816   1.214       .  T
C817        C818   1.212       .  T
C819        C820   1.203       .  T
C820        C821   1.409       .  S
C821        C822   1.204       .  T
C823        C824   1.207   1_655  T
C825        C826   1.202       .  T
C826        C827   1.406       .  S
C827        C828   1.202       .  T
C829        C830   1.215       .  T
C831        C832   1.202       .  T
C832        C833   1.407       .  S
C833        C834   1.202       .  T
C835        C836   1.206       .  T
C836        C837   1.412       .  S
C837        C838   1.206       .  T
C839        C840   1.214       .  T
C841        C842   1.213       .  T
C843        C844   1.202       .  T
C844        C845   1.407       .  S
C845        C846   1.202       .  T
C847        C848   1.214       .  T
C849        C850   1.201       .  T
C850        C851   1.406       .  S
C851        C852   1.202       .  T
C853        C854   1.207       .  T
C855        C856   1.201       .  T
C856        C857   1.405       .  S
C857        C858   1.201       .  T
C859        C860   1.203       .  T
C860        C861   1.408       .  S
C861        C862   1.203       .  T
C863        C864   1.206       .  T
C864        C865   1.413       .  S
C865        C866   1.206       .  T
C867        C868   1.212       .  T
C869        C870   1.213       .  T
C871        C872   1.212       .  T
C873        C874   1.202       .  T
C874        C875   1.407       .  S
C875        C876   1.202       .  T
C877        C878   1.214       .  T
C879        C880   1.201       .  T
C880        C881   1.405       .  S
C881        C882   1.201       .  T
C883        C884   1.207   1_655  T
C885        C886   1.201       .  T
C886        C887   1.406       .  S
C887        C888   1.201       .  T
C889        C890   1.201       .  T
C890        C891   1.406       .  S
C891        C892   1.202       .  T
C893        C894   1.207       .  T
C894        C895   1.415       .  S
C895        C896   1.207       .  T
C897        C898   1.213       .  T
C899        C900   1.214       .  T
C901        C902   1.202       .  T
C902        C903   1.407       .  S
C903        C904   1.203       .  T
C905        C906   1.202       .  T
C906        C907   1.406       .  S
C907        C908   1.201       .  T
C909        C910   1.213       .  T
C911        C912   1.215       .  T
C913        C914   1.200       .  T
C914        C915   1.404       .  S
C915        C916   1.200       .  T
C917        C918   1.202       .  T
C918        C919   1.408       .  S
C919        C920   1.203       .  T
C921        C922   1.207       .  T
C922        C923   1.415   1_545  S
C923        C924   1.207       .  T
C925        C926   1.213       .  T
C927        C928   1.215       .  T
C929        C930   1.207       .  T
C931        C932   1.201       .  T
C932        C933   1.405       .  S
C933        C934   1.201       .  T
C935        C936   1.202       .  T
C936        C937   1.407       .  S
C937        C938   1.203       .  T
C939        C940   1.214       .  T
C941        C942   1.213       .  T
C943        C944   1.207       .  T
C945        C946   1.202       .  T
C946        C947   1.406       .  S
C947        C948   1.201       .  T
C949        C950   1.202       .  T
C950        C951   1.407       .  S
C951        C952   1.202       .  T
C953        C954   1.207       .  T
C954        C955   1.415   1_565  S
C955        C956   1.207       .  T
C957        C958   1.214       .  T
C959        C960   1.215       .  T
C961        C962   1.202       .  T
C962        C963   1.406       .  S
C963        C964   1.201       .  T
C965        C966   1.202       .  T
C966        C967   1.407       .  S
C967        C968   1.202       .  T
C969        C970   1.212       .  T
C971        C972   1.214       .  T
C973        C974   1.202       .  T
C974        C975   1.406       .  S
C975        C976   1.202       .  T
C977        C978   1.202       .  T
C978        C979   1.407       .  S
C979        C980   1.203       .  T
C981        C982   1.213       .  T
C983        C984   1.213       .  T
C985        C986   1.202       .  T
C986        C987   1.406       .  S
C987        C988   1.201       .  T
C989        C990   1.203       .  T
C990        C991   1.408       .  S
C991        C992   1.202       .  T
C993        C994   1.213       .  T
C995        C996   1.214       .  T
C997        C998   1.202       .  T
C998        C999   1.407       .  S
C999       C1000   1.202       .  T
C1001      C1002   1.202       .  T
C1002      C1003   1.406       .  S
C1003      C1004   1.202       .  T
C1005      C1006   1.213       .  T
C1007      C1008   1.214       .  T
C1009      C1010   1.208       .  T
C1011      C1012   1.202       .  T
C1012      C1013   1.407       .  S
C1013      C1014   1.203       .  T
C1015      C1016   1.202       .  T
C1016      C1017   1.406       .  S
C1017      C1018   1.201       .  T
C1019      C1020   1.206       .  T
C1020      C1021   1.412   1_554  S
C1021      C1022   1.206       .  T
C1023      C1024   1.212       .  T
C1025      C1026   1.211       .  T
C1027      C1028   1.208       .  T
C1029      C1030   1.202       .  T
C1030      C1031   1.407       .  S
C1031      C1032   1.202       .  T
C1033      C1034   1.202       .  T
C1034      C1035   1.407       .  S
C1035      C1036   1.202       .  T
C1037      C1038   1.206       .  T
C1038      C1039   1.412   1_556  S
C1039      C1040   1.206       .  T
C1041      C1042   1.211       .  T
C1043      C1044   1.212       .  T
C1045      C1046   1.208       .  T
C1047      C1048   1.202       .  T
C1048      C1049   1.407       .  S
C1049      C1050   1.202       .  T
C1051      C1052   1.202       .  T
C1052      C1053   1.407       .  S
C1053      C1054   1.202       .  T
C1055      C1056   1.206       .  T
C1056      C1057   1.413   1_654  S
C1057      C1058   1.206       .  T
C1059      C1060   1.212       .  T
C1061      C1062   1.212       .  T
C1063      C1064   1.208       .  T
C1065      C1066   1.203       .  T
C1066      C1067   1.409       .  S
C1067      C1068   1.203       .  T
C1069      C1070   1.201       .  T
C1070      C1071   1.406       .  S
C1071      C1072   1.202       .  T
C1073      C1074   1.206       .  T
C1074      C1075   1.413   1_655  S
C1075      C1076   1.206       .  T
C1077      C1078   1.211       .  T
C1079      C1080   1.212       .  T
