geometry optimzed in LAMMPS
_audit_creation_date              2020-11-30 
_audit_creation_method            'lammps2cif' 
_symmetry_space_group_name_H-M    'P1' 
_symmetry_Int_Tables_number       1 
_symmetry_cell_setting            triclinic 
loop_ 
_symmetry_equiv_pos_as_xyz 
  x,y,z 
_cell_length_a                    49.60437835 
_cell_length_b                    49.32922091267773 
_cell_length_c                    49.43533134404032 
_cell_angle_alpha                 90.00215444071446 
_cell_angle_beta                  89.96361268688776 
_cell_angle_gamma                 90.00732089716108 
loop_ 
_atom_site_label 
_atom_site_type_symbol 
_atom_site_fract_x 
_atom_site_fract_y 
_atom_site_fract_z 
_atom_site_charge 
C1          C  0.13720488  0.74322900  0.97661966     0.79800
N2          N  0.15016149  0.74068942  0.00054514    -0.78500
C3          C  0.13670352  0.73485739  0.02357357     0.82300
N4          N  0.10946735  0.73173165  0.02273113    -0.78400
C5          C  0.09609164  0.73380689  0.99865066     0.82400
N6          N  0.11009791  0.73931173  0.97557438    -0.80100
C7          C  0.33912443  0.54164474  0.02474627     0.79800
N8          N  0.34155935  0.55579799  0.00146860    -0.78500
C9          C  0.33638036  0.54455869  0.97707145     0.82300
N10         N  0.32868088  0.51806441  0.97595118    -0.78400
C11         C  0.32623708  0.50333408  0.99925359     0.82400
N12         N  0.33122994  0.51531849  0.02363767    -0.80100
C13         C  0.02483466  0.22051171  0.02521401     0.79800
N14         N  0.05201792  0.22454892  0.02517194    -0.78500
C15         C  0.06574688  0.22659864  0.00124746     0.82300
N16         N  0.05193680  0.22551942  0.97741025    -0.78400
C17         C  0.02479584  0.22156195  0.97745655     0.82400
N18         N  0.01166360  0.21886812  0.00132120    -0.80100
C19         C  0.80504566  0.43230210  0.97628367     0.79800
N20         N  0.80674589  0.45980055  0.97613820    -0.78500
C21         C  0.80840067  0.47367601  0.00000372     0.82300
N22         N  0.80868864  0.45988011  0.02392693    -0.78400
C23         C  0.80692027  0.43239405  0.02391423     0.82400
N24         N  0.80518490  0.41908899  0.00015785    -0.80100
C25         C  0.81812428  0.01218783  0.05556230     0.79800
N26         N  0.82255442  0.98904058  0.06957631    -0.78500
C27         C  0.82797513  0.96534776  0.05680115     0.82300
N28         N  0.82845944  0.96477929  0.02939470    -0.78400
C29         C  0.82419795  0.98790473  0.01496173     0.82400
N30         N  0.81939200  0.01172703  0.02808406    -0.80100
C31         C  0.63472741  0.01039856  0.26343305     0.79800
N32         N  0.60755310  0.01081398  0.26020651    -0.78500
C33         C  0.59325345  0.98707936  0.26030771     0.82300
N34         N  0.60633490  0.96284433  0.26353996    -0.78400
C35         C  0.63351961  0.96259393  0.26731695     0.82400
N36         N  0.64705801  0.98634128  0.26703326    -0.80100
C37         C  0.33524636  0.96464119  0.94664478     0.79800
N38         N  0.33795971  0.98794961  0.93263016    -0.78500
C39         C  0.33353687  0.01236870  0.94427244     0.82300
N40         N  0.32645517  0.01338915  0.97085864    -0.78400
C41         C  0.32383201  0.98993026  0.98528428     0.82400
N42         N  0.32792862  0.96560728  0.97300025    -0.80100
C43         C  0.52758302  0.96660292  0.75140562     0.79800
N44         N  0.51454087  0.99031506  0.74750896    -0.78500
C45         C  0.52804265  0.01372497  0.74351980     0.82300
N46         N  0.55540633  0.01352403  0.74359516    -0.78400
C47         C  0.56890453  0.98971055  0.74716267     0.82400
N48         N  0.55494119  0.96619606  0.75095710    -0.80100
C49         C  0.02504194  0.72742773  0.02078756     0.79800
N50         N  0.05225222  0.73028970  0.02126981    -0.78500
C51         C  0.06658807  0.73020411  0.99765917     0.82300
N52         N  0.05351808  0.72712607  0.97337339    -0.78400
C53         C  0.02622712  0.72379107  0.97292250     0.82400
N54         N  0.01266889  0.72419542  0.99665565    -0.80100
C55         C  0.81338564  0.54511884  0.02307801     0.79800
N56         N  0.81187657  0.51758091  0.02350498    -0.78500
C57         C  0.80965690  0.50346529  0.99984370     0.82300
N58         N  0.80874610  0.51700050  0.97584414    -0.78400
C59         C  0.80973607  0.54447723  0.97541835     0.82400
N60         N  0.81216638  0.55821456  0.99901431    -0.80100
C61         C  0.13595335  0.23912999  0.97728270     0.79800
N62         N  0.10901624  0.23358603  0.97724425    -0.78500
C63         C  0.09525120  0.23121674  0.00116484     0.82300
N64         N  0.10868804  0.23398320  0.02510472    -0.78400
C65         C  0.13551009  0.23964378  0.02523982     0.82400
N66         N  0.14868143  0.24220623  0.00135687    -0.80100
C67         C  0.31340336  0.43369854  0.97349004     0.79800
N68         N  0.31670094  0.46111585  0.97405637    -0.78500
C69         C  0.32033454  0.47403824  0.99828413     0.82300
N70         N  0.32123708  0.45933124  0.02168636    -0.78400
C71         C  0.31844172  0.43195868  0.02099623     0.82400
N72         N  0.31447080  0.41969941  0.99696383    -0.80100
C73         C  0.83086655  0.96091548  0.94577888     0.79800
N74         N  0.83270842  0.98406566  0.93133340    -0.78500
C75         C  0.83105410  0.00874872  0.94316664     0.82300
N76         N  0.82771776  0.01022001  0.97047334    -0.78400
C77         C  0.82592586  0.98693488  0.98535637     0.82400
N78         N  0.82741012  0.96233294  0.97290104    -0.80100
C79         C  0.63968913  0.01189531  0.73926980     0.79800
N80         N  0.61237518  0.01249687  0.74101217    -0.78500
C81         C  0.59841530  0.98923198  0.74596276     0.82300
N82         N  0.61187795  0.96544911  0.74951307    -0.78400
C83         C  0.63918912  0.96501174  0.74833893     0.82400
N84         N  0.65278474  0.98817379  0.74314249    -0.80100
C85         C  0.30917098  0.01482217  0.05435905     0.79800
N86         N  0.30676957  0.99099897  0.06764920    -0.78500
C87         C  0.30960738  0.96691449  0.05500161     0.82300
N88         N  0.31502269  0.96668618  0.02808510    -0.78400
C89         C  0.31727164  0.99050213  0.01419332     0.82400
N90         N  0.31462042  0.01461241  0.02742401    -0.80100
C91         C  0.52340124  0.96563484  0.24362752     0.79800
N92         N  0.51177608  0.99013829  0.23967724    -0.78500
C93         C  0.52559918  0.01336761  0.24331390     0.82300
N94         N  0.55182204  0.01224562  0.25095776    -0.78400
C95         C  0.56415860  0.98782555  0.25447523     0.82400
N96         N  0.54982246  0.96444491  0.25104376    -0.80100
C97         C  0.05732674  0.04493484  0.74115768     0.79800
N98         N  0.05707833  0.01745877  0.74332759    -0.78500
C99         C  0.08081869  0.00357118  0.74465523     0.82300
N100        N  0.10473472  0.01729467  0.74385802    -0.78400
C101        C  0.10495423  0.04473231  0.74165454     0.82400
N102        N  0.08123486  0.05810620  0.74036483    -0.80100
C103        C  0.05675078  0.23131970  0.55436871     0.79800
N104        N  0.05710996  0.23334608  0.52690795    -0.78500
C105        C  0.08119652  0.23596285  0.51358304     0.82300
N106        N  0.10470958  0.23712954  0.52788183    -0.78400
C107        C  0.10420502  0.23562820  0.55530332     0.82400
N108        N  0.08029178  0.23260078  0.56798613    -0.80100
C109        C  0.10581159  0.93315652  0.74423609     0.79800
N110        N  0.08243401  0.91918389  0.74360527    -0.78500
C111        C  0.05824570  0.93165493  0.74371683     0.82300
N112        N  0.05742405  0.95927181  0.74452971    -0.78400
C113        C  0.08097338  0.97376159  0.74526650     0.82400
N114        N  0.10511430  0.96057675  0.74513442    -0.80100
C115        C  0.05707669  0.73645161  0.55613737     0.79800
N116        N  0.08048584  0.73799461  0.56992594    -0.78500
C117        C  0.10464022  0.73388188  0.55801742     0.82300
N118        N  0.10546749  0.72798348  0.53113194    -0.78400
C119        C  0.08204458  0.72637452  0.51664859     0.82400
N120        N  0.05783029  0.73049874  0.52928402    -0.80100
C121        C  0.10328949  0.93383176  0.25515493     0.79800
N122        N  0.07965744  0.92130670  0.26043022    -0.78500
C123        C  0.05646201  0.93519872  0.26371012     0.82300
N124        N  0.05675079  0.96266345  0.26150753    -0.78400
C125        C  0.08049901  0.97579934  0.25663877     0.82400
N126        N  0.10376276  0.96130800  0.25346715    -0.80100
C127        C  0.10731710  0.71411696  0.44676667     0.79800
N128        N  0.10681691  0.71756573  0.47412011    -0.78500
C129        C  0.08279417  0.72139113  0.48719314     0.82300
N130        N  0.05940690  0.72238379  0.47269549    -0.78400
C131        C  0.05986363  0.71950177  0.44537405     0.82400
N132        N  0.08380345  0.71532472  0.43282305    -0.80100
C133        C  0.05870035  0.04770766  0.25302759     0.79800
N134        N  0.08264902  0.05981767  0.24789279    -0.78500
C135        C  0.10579595  0.04548422  0.24595067     0.82300
N136        N  0.10503517  0.01819884  0.24924376    -0.78400
C137        C  0.08110338  0.00548635  0.25406550     0.82400
N138        N  0.05790295  0.02028834  0.25600038    -0.80100
C139        C  0.10617348  0.24595872  0.44345445     0.79800
N140        N  0.08249269  0.24695593  0.42992821    -0.78500
C141        C  0.05853587  0.24402080  0.44266701     0.82300
N142        N  0.05821801  0.23988161  0.46982207    -0.78400
C143        C  0.08180776  0.23880374  0.48392381     0.82400
N144        N  0.10583529  0.24179169  0.47066635    -0.80100
C145        C  0.33129347  0.51381985  0.44541528     0.79800
N146        N  0.32631672  0.49068800  0.43162544    -0.78500
C147        C  0.31963918  0.46739044  0.44437661     0.82300
N148        N  0.31828114  0.46715376  0.47181268    -0.78400
C149        C  0.32302959  0.49029931  0.48619562     0.82400
N150        N  0.32929581  0.51377779  0.47291318    -0.80100
C151        C  0.13515134  0.46260818  0.26308885     0.79800
N152        N  0.10802852  0.46377199  0.26002708    -0.78500
C153        C  0.09557386  0.48817645  0.25680027     0.82300
N154        N  0.11052417  0.51142403  0.25594422    -0.78400
C155        C  0.13781947  0.51016611  0.25860469     0.82400
N156        N  0.14966453  0.48575326  0.26234574    -0.80100
O157        O  0.28584565  0.73402673  0.17285063    -0.86900
O158        O  0.28716637  0.73379508  0.32660801    -0.87000
O159        O  0.25467257  0.69252673  0.24653637    -0.88700
O160        O  0.25401079  0.78154172  0.25048237    -0.87500
O161        O  0.28512860  0.81586295  0.25077094    -0.87000
O162        O  0.28893367  0.66133528  0.24586527    -0.88400
O163        O  0.25472440  0.73214449  0.29359236    -0.86900
O164        O  0.25295416  0.73436558  0.20558473    -0.86500
Zr165      Zr  0.27589868  0.73698808  0.24896841     2.84300
O166        O  0.30206420  0.76481977  0.27666225    -1.08500
O167        O  0.30426417  0.71137331  0.22099786    -1.09200
C168        C  0.26104853  0.73255648  0.18081882     1.06200
C169        C  0.26244016  0.73133223  0.31862910     1.06200
C170        C  0.26374625  0.66799224  0.24577545     1.09200
C171        C  0.26067341  0.80695701  0.25096877     1.06900
H172        H  0.29348159  0.69747293  0.28611121     0.32500
O173        O  0.30411104  0.70958424  0.27515184    -1.29400
H174        H  0.28988366  0.77630757  0.21026744     0.32200
O175        O  0.30175234  0.76538904  0.22121216    -1.31100
O176        O  0.37444597  0.73954347  0.32415048    -0.86900
O177        O  0.37392493  0.73972006  0.17001909    -0.88400
O178        O  0.33381218  0.66112597  0.29092134    -0.86900
O179        O  0.32931311  0.81507823  0.29290185    -0.87000
O180        O  0.32576764  0.81522461  0.20517679    -0.86700
O181        O  0.33154656  0.66172111  0.20343426    -0.86500
O182        O  0.40799291  0.69729359  0.24704630    -0.86900
O183        O  0.40635426  0.78398687  0.24541410    -0.86300
O184        O  0.37691341  0.66292869  0.24567973    -0.87400
O185        O  0.37217185  0.81522475  0.24601292    -0.86600
O186        O  0.33258956  0.69307937  0.32461934    -0.87000
O187        O  0.33170493  0.69532745  0.17127401    -0.86700
O188        O  0.32741852  0.78382905  0.17101111    -0.86300
O189        O  0.33058149  0.78129266  0.32486963    -0.86700
O190        O  0.40758384  0.74270017  0.29194458    -0.87000
O191        O  0.40603455  0.73898881  0.20344980    -0.88400
Zr192      Zr  0.33040164  0.73730428  0.30277179     2.83100
Zr193      Zr  0.33020197  0.73956211  0.19330390     2.83500
Zr194      Zr  0.33235053  0.68402713  0.24727905     2.84100
Zr195      Zr  0.32846027  0.79289394  0.24891828     2.83400
Zr196      Zr  0.38462355  0.74022509  0.24796189     2.84200
O197        O  0.35676502  0.76737478  0.22089838    -1.08900
O198        O  0.35896081  0.71126548  0.27531806    -1.08400
C199        C  0.39929014  0.74238649  0.31679490     1.06200
C200        C  0.39862817  0.73854396  0.17835348     1.08800
C201        C  0.33380374  0.66836665  0.31605524     1.06400
C202        C  0.33051623  0.80642827  0.31752712     1.06800
C203        C  0.32554935  0.80841644  0.17994399     1.06300
C204        C  0.33199081  0.67019861  0.17874346     1.05900
C205        C  0.40134729  0.67207141  0.24566251     1.06300
C206        C  0.39732690  0.80845178  0.24472332     1.05800
H207        H  0.36970950  0.70165709  0.20870148     0.32500
O208        O  0.35831626  0.71259522  0.22013222    -1.30000
H209        H  0.36759299  0.77776773  0.28678042     0.32500
O210        O  0.35656655  0.76611312  0.27570785    -1.31400
C211        C  0.52480287  0.25868166  0.47709129     0.79800
N212        N  0.55211244  0.25587184  0.47666528    -0.78500
C213        C  0.56625796  0.25615915  0.50042778     0.82300
N214        N  0.55302139  0.25920735  0.52441195    -0.78400
C215        C  0.52586237  0.26218595  0.52469944     0.82400
N216        N  0.51226499  0.26173117  0.50112468    -0.80100
C217        C  0.32808237  0.04530501  0.47917710     0.79800
N218        N  0.33077167  0.01789832  0.47771814    -0.78500
C219        C  0.32678346  0.00238057  0.50021712     0.82300
N220        N  0.32030477  0.01440657  0.52425063    -0.78400
C221        C  0.31700386  0.04171355  0.52559496     0.82400
N222        N  0.32100297  0.05671925  0.50307383    -0.80100
O223        O  0.33586953  0.16238034  0.79253987    -0.86900
O224        O  0.32712686  0.31577857  0.79182277    -0.87000
O225        O  0.37574769  0.24037388  0.82525304    -0.88700
O226        O  0.28826821  0.23664398  0.82591006    -0.87500
O227        O  0.25451547  0.23623698  0.79427747    -0.87000
O228        O  0.40761155  0.23946844  0.79151483    -0.88400
O229        O  0.32648931  0.28236240  0.82409488    -0.86900
O230        O  0.33479627  0.19447764  0.82605664    -0.86500
Zr231      Zr  0.33209368  0.23803284  0.80313070     2.84300
O232        O  0.30483101  0.26556856  0.77642585    -1.08500
O233        O  0.35961087  0.21100444  0.77546734    -1.09200
C234        C  0.33629851  0.16976727  0.81759209     1.06200
C235        C  0.32492692  0.30739596  0.81647651     1.06200
C236        C  0.40029528  0.24066679  0.81658515     1.09200
C237        C  0.26309540  0.23640186  0.81896581     1.06900
H238        H  0.36993455  0.27740173  0.78676318     0.32500
O239        O  0.35895516  0.26579795  0.77553642    -1.29400
H240        H  0.29403087  0.19832659  0.78813813     0.32200
O241        O  0.30483585  0.20994802  0.77673766    -1.31100
O242        O  0.32764168  0.31371598  0.70365787    -0.86900
O243        O  0.32999105  0.16006023  0.70535658    -0.88400
O244        O  0.40733767  0.28309948  0.74840221    -0.86900
O245        O  0.25384695  0.28150856  0.75153137    -0.87000
O246        O  0.25646085  0.19345301  0.74802883    -0.86700
O247        O  0.40930143  0.19490366  0.74530746    -0.86500
O248        O  0.37430245  0.24183274  0.67181124    -0.86900
O249        O  0.28621918  0.23725896  0.67231893    -0.86300
O250        O  0.40793476  0.24233717  0.70367659    -0.87400
O251        O  0.25500184  0.23814242  0.70653674    -0.86600
O252        O  0.37511503  0.31645660  0.74875456    -0.87000
O253        O  0.37642904  0.16216867  0.74517483    -0.86700
O254        O  0.28874801  0.16014681  0.74842586    -0.86300
O255        O  0.28700197  0.31378797  0.74892841    -0.86700
O256        O  0.32721741  0.28114836  0.67047007    -0.87000
O257        O  0.32824873  0.19331928  0.67295331    -0.88400
Zr258      Zr  0.33139367  0.29292887  0.74833956     2.83100
Zr259      Zr  0.33227780  0.18355790  0.74845254     2.83500
Zr260      Zr  0.38589248  0.23862714  0.74745737     2.84100
Zr261      Zr  0.27720773  0.23782534  0.75030861     2.83400
Zr262      Zr  0.33044574  0.23801200  0.69400855     2.84200
O263        O  0.30408281  0.21083478  0.72223138    -1.08900
O264        O  0.35823358  0.26585647  0.72039732    -1.08400
C265        C  0.32594343  0.30593591  0.67871521     1.06200
C266        C  0.32787078  0.16826682  0.68067374     1.08800
C267        C  0.39991229  0.30822069  0.74923851     1.06400
C268        C  0.26203259  0.30634588  0.75000049     1.06800
C269        C  0.26402806  0.16843171  0.74737226     1.06300
C270        C  0.40129127  0.16995130  0.74418715     1.05900
C271        C  0.39929756  0.24363339  0.67908713     1.06300
C272        C  0.26173774  0.23783460  0.68128671     1.05800
H273        H  0.36988747  0.19987334  0.70837844     0.32500
O274        O  0.35883174  0.21083398  0.72019199    -1.30000
H275        H  0.29184197  0.27617797  0.71114812     0.32500
O276        O  0.30363309  0.26513586  0.72208433    -1.31400
C277        C  0.52454278  0.75938213  0.47402153     0.79800
N278        N  0.55198794  0.75943343  0.47360317    -0.78500
C279        C  0.56611710  0.75637442  0.49715317     0.82300
N280        N  0.55264103  0.75312953  0.52108043    -0.78400
C281        C  0.52525011  0.75306669  0.52145668     0.82400
N282        N  0.51169860  0.75627457  0.49797705    -0.80100
C283        C  0.33673712  0.93146519  0.52200419     0.79800
N284        N  0.33192346  0.95850719  0.52250490    -0.78500
C285        C  0.33056948  0.97282528  0.49902607     0.82300
N286        N  0.33353845  0.95979709  0.47481803    -0.78400
C287        C  0.33814424  0.93258062  0.47431256     0.82400
N288        N  0.33977250  0.91884405  0.49792675    -0.80100
C289        C  0.31373953  0.46425544  0.55578760     0.79800
N290        N  0.31493488  0.48743031  0.57025158    -0.78500
C291        C  0.31914808  0.51172862  0.55830566     0.82300
N292        N  0.32221433  0.51285565  0.53092147    -0.78400
C293        C  0.32084955  0.48960021  0.51595131     0.82400
N294        N  0.31679937  0.46533819  0.52853834    -0.80100
C295        C  0.13738913  0.46538364  0.75170438     0.79800
N296        N  0.15089136  0.48907147  0.75180840    -0.78500
C297        C  0.13838789  0.51323735  0.75400587     0.82300
N298        N  0.11107223  0.51383014  0.75627535    -0.78400
C299        C  0.09688105  0.49006808  0.75634573     0.82400
N300        N  0.11012761  0.46582511  0.75417898    -0.80100
O301        O  0.29181104  0.74491474  0.82984123    -0.86900
O302        O  0.28522402  0.73671508  0.67596907    -0.87000
O303        O  0.25686840  0.78486356  0.75219063    -0.88700
O304        O  0.25535874  0.69649416  0.75557580    -0.87500
O305        O  0.28925223  0.66502976  0.75318329    -0.87000
O306        O  0.28848372  0.81878635  0.75076619    -0.88400
O307        O  0.25462732  0.73761497  0.71081255    -0.86900
O308        O  0.25773407  0.74384184  0.79849345    -0.86500
Zr309      Zr  0.27811925  0.74034660  0.75375062     2.84300
O310        O  0.30440602  0.71275138  0.72580119    -1.08500
O311        O  0.30599219  0.76850006  0.77916333    -1.09200
C312        C  0.26662220  0.74555117  0.82300231     1.06200
C313        C  0.26095248  0.73638282  0.68549453     1.06200
C314        C  0.26402873  0.81005377  0.75105520     1.09200
C315        C  0.26413250  0.67185252  0.75444097     1.06900
H316        H  0.29171300  0.77811249  0.71297528     0.32500
O317        O  0.30348253  0.76725766  0.72414015    -1.29400
H318        H  0.29571688  0.70248754  0.79260435     0.32200
O319        O  0.30643010  0.71358500  0.78061219    -1.31100
O320        O  0.37291565  0.74094790  0.67173698    -0.86900
O321        O  0.38036910  0.74100871  0.82479471    -0.88400
O322        O  0.33136194  0.81744754  0.70587169    -0.86900
O323        O  0.33053540  0.66310189  0.70971643    -0.87000
O324        O  0.33514698  0.66390722  0.79577278    -0.86700
O325        O  0.33079832  0.81728013  0.79446363    -0.86500
O326        O  0.40816826  0.78663729  0.74809473    -0.86900
O327        O  0.40861153  0.69857087  0.74727424    -0.86300
O328        O  0.37461926  0.81853180  0.75014916    -0.87400
O329        O  0.37733895  0.66451298  0.75015002    -0.86600
O330        O  0.33042985  0.78329968  0.67430330    -0.87000
O331        O  0.33346041  0.78532903  0.82819897    -0.86700
O332        O  0.33593846  0.69785823  0.82738186    -0.86300
O333        O  0.32965982  0.69429078  0.67532066    -0.86700
O334        O  0.40721804  0.74234798  0.70288636    -0.87000
O335        O  0.41096406  0.74128333  0.78994088    -0.88400
Zr336      Zr  0.32996235  0.73934693  0.69626084     2.83100
Zr337      Zr  0.33478035  0.74191841  0.80554192     2.83500
Zr338      Zr  0.33139871  0.79555589  0.75005351     2.84100
Zr339      Zr  0.33328654  0.68667014  0.75235081     2.83400
Zr340      Zr  0.38638945  0.74229754  0.74776610     2.84200
O341        O  0.36141318  0.71502308  0.77733294    -1.08900
O342        O  0.35756625  0.76848451  0.72136684    -1.08400
C343        C  0.39814699  0.74198905  0.67838202     1.06200
C344        C  0.40470708  0.74079150  0.81526075     1.08800
C345        C  0.33145923  0.80849721  0.68131723     1.06400
C346        C  0.32954852  0.66972404  0.68453093     1.06800
C347        C  0.33609149  0.67263886  0.82033614     1.06300
C348        C  0.33180527  0.80989365  0.81954426     1.05900
C349        C  0.39963120  0.81132881  0.74965044     1.06300
C350        C  0.40181095  0.67332228  0.74806732     1.05800
H351        H  0.37183965  0.78096644  0.78747678     0.32500
O352        O  0.36037599  0.76944146  0.77666613    -1.30000
H353        H  0.36979129  0.70187364  0.71103192     0.32500
O354        O  0.35892019  0.71322384  0.72262559    -1.31400
C355        C  0.80239994  0.51367177  0.44442191     0.79800
N356        N  0.80646559  0.51331723  0.47154385    -0.78500
C357        C  0.80787209  0.48924990  0.48502671     0.82300
N358        N  0.80578966  0.46547368  0.47117597    -0.78400
C359        C  0.80178405  0.46584933  0.44397811     0.82400
N360        N  0.80008020  0.48994648  0.43101692    -0.80100
C361        C  0.02584573  0.51336005  0.24661952     0.79800
N362        N  0.05313238  0.51300038  0.24927086    -0.78500
C363        C  0.06605404  0.48906762  0.25430905     0.82300
N364        N  0.05155329  0.46567990  0.25708036    -0.78400
C365        C  0.02428510  0.46619436  0.25489582     0.82400
N366        N  0.01195361  0.49002349  0.24955035    -0.80100
C367        C  0.60649911  0.54576980  0.24060528     0.79800
N368        N  0.60593094  0.51840428  0.24381284    -0.78500
C369        C  0.58183214  0.50499473  0.24414029     0.82300
N370        N  0.55833206  0.51921639  0.24162165    -0.78400
C371        C  0.55895567  0.54664707  0.23866577     0.82400
N372        N  0.58305188  0.55943070  0.23815061    -0.80100
C373        C  0.60424711  0.72285301  0.05657377     0.79800
N374        N  0.60504557  0.72838766  0.02960868    -0.78500
C375        C  0.58166888  0.73018011  0.01506456     0.82300
N376        N  0.55747320  0.72695604  0.02765891    -0.78400
C377        C  0.55652791  0.72134855  0.05450585     0.82400
N378        N  0.57990048  0.71932965  0.06856491    -0.80100
O379        O  0.83556262  0.81516831  0.20765097    -0.86900
O380        O  0.82853378  0.66203584  0.20585374    -0.87000
O381        O  0.87456891  0.73872177  0.17344112    -0.88700
O382        O  0.78666939  0.73983558  0.17383016    -0.87500
O383        O  0.75546979  0.74067901  0.20802901    -0.87000
O384        O  0.90866569  0.73883107  0.20476734    -0.88400
O385        O  0.82985216  0.69564630  0.17381770    -0.86900
O386        O  0.83276224  0.78368690  0.17364831    -0.86500
Zr387      Zr  0.83094974  0.74001640  0.19596166     2.84300
O388        O  0.80356452  0.71316500  0.22334276    -1.08500
O389        O  0.85982618  0.76636101  0.22303736    -1.09200
C390        C  0.83478888  0.80819857  0.18245997     1.06200
C391        C  0.82896482  0.67045722  0.18113786     1.06200
C392        C  0.89976528  0.73833352  0.18013521     1.09200
C393        C  0.76212872  0.73964349  0.18274831     1.06900
H394        H  0.86887261  0.70057685  0.21046435     0.32500
O395        O  0.85827519  0.71194927  0.22224707    -1.29400
H396        H  0.79414792  0.77999853  0.21328890     0.32200
O397        O  0.80525234  0.76819837  0.22416965    -1.31100
O398        O  0.82846991  0.66170798  0.29280371    -0.86900
O399        O  0.83438973  0.81550170  0.29618870    -0.88400
O400        O  0.90803631  0.69373900  0.24744885    -0.86900
O401        O  0.75493865  0.69758367  0.24971424    -0.87000
O402        O  0.75678047  0.78555534  0.25255181    -0.86700
O403        O  0.91015877  0.78144657  0.25322567    -0.86500
O404        O  0.87814279  0.73672485  0.32755855    -0.86900
O405        O  0.79074425  0.74129748  0.32806349    -0.86300
O406        O  0.90972825  0.73647181  0.29364030    -0.87400
O407        O  0.75699728  0.74245028  0.29633147    -0.86600
O408        O  0.87418718  0.66199875  0.24661627    -0.87000
O409        O  0.87831891  0.81519914  0.25368454    -0.86700
O410        O  0.79063865  0.81721410  0.25331964    -0.86300
O411        O  0.78663802  0.66366333  0.24836372    -0.86700
O412        O  0.83165323  0.69306300  0.32695931    -0.87000
O413        O  0.83368055  0.78142579  0.32782091    -0.88400
Zr414      Zr  0.83081875  0.68483881  0.24949950     2.83100
Zr415      Zr  0.83405700  0.79370363  0.25183378     2.83500
Zr416      Zr  0.88701493  0.73803101  0.24952523     2.84100
Zr417      Zr  0.77813545  0.74102598  0.25176513     2.83400
Zr418      Zr  0.83404512  0.73757380  0.30530896     2.84200
O419        O  0.80702836  0.76638129  0.27916589    -1.08900
O420        O  0.86010268  0.71005560  0.27691235    -1.08400
C421        C  0.82885146  0.66859727  0.31799518     1.06200
C422        C  0.83358773  0.80666056  0.32079053     1.08800
C423        C  0.89924355  0.66917021  0.24602639     1.06400
C424        C  0.76215327  0.67245424  0.24825523     1.06800
C425        C  0.76546774  0.81023234  0.25344118     1.06300
C426        C  0.90289349  0.80656232  0.25480612     1.05900
C427        C  0.90277117  0.73653541  0.31892907     1.06300
C428        C  0.76574780  0.74314130  0.32095206     1.05800
H429        H  0.87256024  0.77589670  0.28970822     0.32500
O430        O  0.86107265  0.76517449  0.27815716    -1.30000
H431        H  0.79322170  0.70110049  0.28926488     0.32500
O432        O  0.80483273  0.71213104  0.27811235    -1.31400
C433        C  0.63666773  0.76058581  0.52149741     0.79800
N434        N  0.60945058  0.75756164  0.52114981    -0.78500
C435        C  0.59580578  0.75828860  0.49714688     0.82300
N436        N  0.60961751  0.76185324  0.47343419    -0.78400
C437        C  0.63689609  0.76491909  0.47383601     0.82400
N438        N  0.64983134  0.76416396  0.49783537    -0.80100
C439        C  0.82112227  0.93456956  0.52465518     0.79800
N440        N  0.81916861  0.92119680  0.50082008    -0.78500
C441        C  0.82133736  0.93418430  0.47683261     0.82300
N442        N  0.82567111  0.96135286  0.47667949    -0.78400
C443        C  0.82743815  0.97526354  0.50046769     0.82400
N444        N  0.82534819  0.96178988  0.52447461    -0.80100
C445        C  0.60427430  0.54327903  0.72054237     0.79800
N446        N  0.58062070  0.55674493  0.71984605    -0.78500
C447        C  0.55686206  0.54462991  0.72561994     0.82300
N448        N  0.55677828  0.51767670  0.73182601    -0.78400
C449        C  0.58052310  0.50346248  0.73222336     0.82400
N450        N  0.60424817  0.51651597  0.72705442    -0.80100
C451        C  0.56033887  0.74355993  0.94425013     0.79800
N452        N  0.55925362  0.73752491  0.97112498    -0.78500
C453        C  0.58250301  0.73630637  0.98596772     0.82300
N454        N  0.60672275  0.74071205  0.97377796    -0.78400
C455        C  0.60775952  0.74693025  0.94709703     0.82400
N456        N  0.58464761  0.74826409  0.93273509    -0.80100
C457        C  0.81361273  0.51418796  0.55491167     0.79800
N458        N  0.81189026  0.51352752  0.52763357    -0.78500
C459        C  0.81132969  0.48931789  0.51445736     0.82300
N460        N  0.81261076  0.46562936  0.52875627    -0.78400
C461        C  0.81444676  0.46642510  0.55622057     0.82400
N462        N  0.81490105  0.49070617  0.56883063    -0.80100
C463        C  0.02614611  0.51384287  0.76345377     0.79800
N464        N  0.05335819  0.51413339  0.75977224    -0.78500
C465        C  0.06736562  0.49028702  0.75918701     0.82300
N466        N  0.05401779  0.46629454  0.76172839    -0.78400
C467        C  0.02696108  0.46597420  0.76555905     0.82400
N468        N  0.01336182  0.48972875  0.76650169    -0.80100
O469        O  0.87349879  0.73107231  0.82438053    -0.86900
O470        O  0.87343199  0.73944350  0.67131795    -0.87000
O471        O  0.90463120  0.69137174  0.74611804    -0.88700
O472        O  0.90763339  0.77875550  0.74865803    -0.87500
O473        O  0.87683734  0.81341689  0.74849169    -0.87000
O474        O  0.87045519  0.66003728  0.74868369    -0.88400
O475        O  0.90548557  0.73788316  0.70466769    -0.86900
O476        O  0.90654400  0.73033405  0.79191768    -0.86500
Zr477      Zr  0.88367443  0.73565139  0.74864738     2.84300
O478        O  0.85822111  0.76507993  0.72200810    -1.08500
O479        O  0.85531788  0.70890942  0.77551830    -1.09200
C480        C  0.89837368  0.72888206  0.81668730     1.06200
C481        C  0.89812235  0.73939883  0.67965795     1.06200
C482        C  0.89565283  0.66690145  0.74765453     1.09200
C483        C  0.90119279  0.80413927  0.74793614     1.06900
H484        H  0.86627418  0.69829232  0.70923714     0.32500
O485        O  0.85554253  0.70973334  0.72089129    -1.29400
H486        H  0.87024327  0.77386970  0.78865911     0.32200
O487        O  0.85826433  0.76361729  0.77713052    -1.31100
O488        O  0.78605335  0.74287590  0.67261663    -0.86900
O489        O  0.78555505  0.73873296  0.82599337    -0.88400
O490        O  0.82542040  0.66378039  0.70311000    -0.86900
O491        O  0.83144746  0.81717794  0.70734332    -0.87000
O492        O  0.83477798  0.81319956  0.79512656    -0.86700
O493        O  0.82416748  0.65946745  0.79148262    -0.86500
O494        O  0.75052959  0.69773510  0.74294883    -0.86900
O495        O  0.75473445  0.78431226  0.75078763    -0.86300
O496        O  0.78170593  0.66338041  0.74370847    -0.87400
O497        O  0.78888468  0.81560384  0.75369763    -0.86600
O498        O  0.82659061  0.69669648  0.67027137    -0.87000
O499        O  0.82564704  0.69243162  0.82422143    -0.86700
O500        O  0.83136053  0.77974550  0.82727969    -0.86300
O501        O  0.83024779  0.78431401  0.67452598    -0.86700
O502        O  0.75256588  0.74367447  0.70459073    -0.87000
O503        O  0.75320716  0.74153243  0.79286018    -0.88400
Zr504      Zr  0.82985340  0.73939538  0.69445361     2.83100
Zr505      Zr  0.82924917  0.73670189  0.80327647     2.83500
Zr506      Zr  0.82687040  0.68329058  0.74801244     2.84100
Zr507      Zr  0.83221837  0.79268962  0.75029754     2.83400
Zr508      Zr  0.77510161  0.74009818  0.74850398     2.84200
O509        O  0.80347132  0.76575070  0.77644779    -1.08900
O510        O  0.80144553  0.71243647  0.72091083    -1.08400
C511        C  0.76106070  0.74442698  0.67987214     1.06200
C512        C  0.76088306  0.74084362  0.81786733     1.08800
C513        C  0.82494692  0.67186734  0.67827458     1.06400
C514        C  0.83022705  0.80926007  0.68245705     1.06800
C515        C  0.83380017  0.80471792  0.81986425     1.06300
C516        C  0.82365319  0.66754708  0.81639022     1.05900
C517        C  0.75731772  0.67249869  0.74145102     1.06300
C518        C  0.76376297  0.80863849  0.75323502     1.05800
H519        H  0.78830472  0.69996046  0.78659226     0.32500
O520        O  0.80036624  0.71092289  0.77580892    -1.30000
H521        H  0.79279807  0.77945296  0.71148208     0.32500
O522        O  0.80363774  0.76730376  0.72227384    -1.31400
C523        C  0.55767092  0.43364406  0.24314932     0.79800
N524        N  0.55783702  0.46123337  0.24219976    -0.78500
C525        C  0.58132183  0.47513756  0.24619333     0.82300
N526        N  0.60459414  0.46126911  0.25117080    -0.78400
C527        C  0.60427739  0.43376246  0.25285819     0.82400
N528        N  0.58087036  0.42033685  0.24872328    -0.80100
C529        C  0.60475895  0.23363200  0.05308364     0.79800
N530        N  0.60414719  0.23998912  0.02635742    -0.78500
C531        C  0.57999636  0.24238478  0.01331440     0.82300
N532        N  0.55643717  0.23897292  0.02731296    -0.78400
C533        C  0.55711671  0.23272120  0.05411946     0.82400
N534        N  0.58130435  0.23003103  0.06641231    -0.80100
O535        O  0.87256476  0.23593564  0.17374891    -0.86900
O536        O  0.87427183  0.24329558  0.32761577    -0.87000
O537        O  0.90628288  0.28441898  0.24878665    -0.88700
O538        O  0.90600310  0.19752695  0.25056738    -0.87500
O539        O  0.87516349  0.16294192  0.25167431    -0.87000
O540        O  0.87230455  0.31584540  0.24843328    -0.88400
O541        O  0.90582864  0.24285643  0.29369214    -0.86900
O542        O  0.90602465  0.23970839  0.20562207    -0.86500
Zr543      Zr  0.88357770  0.24088225  0.24946925     2.84300
O544        O  0.85776262  0.21335790  0.27785567    -1.08500
O545        O  0.85572866  0.26648806  0.22105157    -1.09200
C546        C  0.89758917  0.23691723  0.18106493     1.06200
C547        C  0.89887003  0.24368667  0.31893706     1.06200
C548        C  0.89749243  0.30900486  0.24896234     1.09200
C549        C  0.89955752  0.17222483  0.25135154     1.06900
H550        H  0.86753505  0.28066337  0.28740203     0.32500
O551        O  0.85661241  0.26870347  0.27649558    -1.29400
H552        H  0.86810015  0.20002057  0.21222940     0.32200
O553        O  0.85690065  0.21154625  0.22332362    -1.31100
O554        O  0.78639296  0.24071342  0.32582119    -0.86900
O555        O  0.78453836  0.23756113  0.17316355    -0.88400
O556        O  0.82610899  0.31729324  0.29149378    -0.86900
O557        O  0.83185087  0.16373296  0.29651562    -0.87000
O558        O  0.82686223  0.16088951  0.20815861    -0.86700
O559        O  0.82718382  0.31451739  0.20334555    -0.86500
O560        O  0.75292606  0.28122973  0.25327928    -0.86900
O561        O  0.75318266  0.19274660  0.25300599    -0.86300
O562        O  0.78430033  0.31535773  0.25058597    -0.87400
O563        O  0.78726021  0.16141065  0.25411520    -0.86600
O564        O  0.82724011  0.28602590  0.32585027    -0.87000
O565        O  0.82705698  0.28009174  0.17205803    -0.86700
O566        O  0.82654632  0.19267415  0.17422908    -0.86300
O567        O  0.83348237  0.19794544  0.32799549    -0.86700
O568        O  0.75247571  0.23774195  0.29443680    -0.87000
O569        O  0.75255084  0.23562564  0.20671459    -0.88400
Zr570      Zr  0.83055832  0.24120071  0.30469264     2.83100
Zr571      Zr  0.82846090  0.23718472  0.19564093     2.83500
Zr572      Zr  0.82829033  0.29372117  0.24820158     2.84100
Zr573      Zr  0.83069067  0.18435781  0.25175951     2.83400
Zr574      Zr  0.77498571  0.23721698  0.25080652     2.84200
O575        O  0.80224510  0.20968882  0.22382429    -1.08900
O576        O  0.80227528  0.26619536  0.27644309    -1.08400
C577        C  0.76130366  0.23965259  0.31889635     1.06200
C578        C  0.75989095  0.23631566  0.18158737     1.08800
C579        C  0.82551541  0.31057324  0.31677184     1.06400
C580        C  0.83341859  0.17271119  0.32101605     1.06800
C581        C  0.82551828  0.16800855  0.18296661     1.06300
C582        C  0.82640063  0.30531576  0.17886148     1.05900
C583        C  0.75991100  0.30646488  0.25288403     1.06300
C584        C  0.76206367  0.16812090  0.25407813     1.05800
H585        H  0.78913641  0.27567681  0.21114203     0.32500
O586        O  0.80089303  0.26489190  0.22238652    -1.30000
H587        H  0.79277913  0.20071767  0.29082640     0.32500
O588        O  0.80347545  0.21192303  0.27893379    -1.31400
C589        C  0.55779751  0.43414266  0.75107475     0.79800
N590        N  0.58186898  0.42160637  0.75426267    -0.78500
C591        C  0.60549578  0.43467913  0.75023789     0.82300
N592        N  0.60501779  0.46121785  0.74267917    -0.78400
C593        C  0.58094542  0.47440653  0.73961214     0.82400
N594        N  0.55736947  0.46071833  0.74368310    -0.80100
C595        C  0.55497070  0.25341052  0.94357103     0.79800
N596        N  0.55542632  0.25030338  0.97087179    -0.78500
C597        C  0.57948053  0.24715027  0.98390961     0.82300
N598        N  0.60294090  0.24634746  0.96938117    -0.78400
C599        C  0.60236184  0.24894865  0.94199310     0.82400
N600        N  0.57837826  0.25261600  0.92965768    -0.80100
C601        C  0.63694392  0.25545600  0.52438836     0.79800
N602        N  0.60956340  0.25535353  0.52435847    -0.78500
C603        C  0.59582643  0.25442403  0.50041111     0.82300
N604        N  0.60960209  0.25337462  0.47654470    -0.78400
C605        C  0.63698120  0.25337042  0.47667205     0.82400
N606        N  0.65018303  0.25443470  0.50057098    -0.80100
C607        C  0.84137656  0.04442120  0.47532963     0.79800
N608        N  0.83606974  0.01745239  0.47590377    -0.78500
C609        C  0.83208149  0.00467712  0.50005093     0.82300
N610        N  0.83298004  0.01912755  0.52362954    -0.78400
C611        C  0.83806803  0.04622916  0.52294589     0.82400
N612        N  0.84219362  0.05833468  0.49879097    -0.80100
O613        O  0.87320844  0.23447257  0.82799760    -0.86900
O614        O  0.87845553  0.24267866  0.67504542    -0.87000
O615        O  0.90865805  0.19662357  0.74821970    -0.88700
O616        O  0.90858396  0.28478709  0.75434176    -0.87500
O617        O  0.87497197  0.31670033  0.75673907    -0.87000
O618        O  0.87677077  0.16292441  0.74681161    -0.88400
O619        O  0.90970423  0.24170135  0.70923759    -0.86900
O620        O  0.90746878  0.23822324  0.79690895    -0.86500
Zr621      Zr  0.88639166  0.24064467  0.75251439     2.84300
O622        O  0.86011028  0.26893377  0.72509291    -1.08500
O623        O  0.85911864  0.21118940  0.77777462    -1.09200
C624        C  0.89837666  0.23554018  0.82124422     1.06200
C625        C  0.90289501  0.24188920  0.68400730     1.06200
C626        C  0.90131781  0.17151615  0.74624019     1.09200
C627        C  0.90008832  0.30945858  0.75643156     1.06900
H628        H  0.87226897  0.20365327  0.71177384     0.32500
O629        O  0.86054379  0.21424539  0.72324329    -1.29400
H630        H  0.86810098  0.27695411  0.79280230     0.32200
O631        O  0.85764809  0.26599541  0.78045418    -1.31100
O632        O  0.79101381  0.24206983  0.67209559    -0.86900
O633        O  0.78521371  0.23404658  0.82627310    -0.88400
O634        O  0.83563970  0.16439213  0.70388308    -0.86900
O635        O  0.83211542  0.31773596  0.70985090    -0.87000
O636        O  0.82569842  0.31399485  0.79729278    -0.86700
O637        O  0.83295035  0.16092832  0.79105307    -0.86500
O638        O  0.75659314  0.19332755  0.74368558    -0.86900
O639        O  0.75516862  0.28205882  0.74950984    -0.86300
O640        O  0.79048195  0.16172159  0.74428290    -0.87400
O641        O  0.78693357  0.31599204  0.75040249    -0.86600
O642        O  0.83674482  0.19873994  0.67261700    -0.87000
O643        O  0.83123747  0.19153214  0.82583312    -0.86700
O644        O  0.82571138  0.27954286  0.82851419    -0.86300
O645        O  0.83363681  0.28681675  0.67524319    -0.86700
O646        O  0.75675523  0.23945457  0.70322298    -0.87000
O647        O  0.75452705  0.23536326  0.79161959    -0.88400
Zr648      Zr  0.83403225  0.24205811  0.69599335     2.83100
Zr649      Zr  0.82976700  0.23638403  0.80501388     2.83500
Zr650      Zr  0.83315614  0.18510532  0.74821987     2.84100
Zr651      Zr  0.83110634  0.29389595  0.75283052     2.83400
Zr652      Zr  0.77756306  0.23796594  0.74806503     2.84200
O653        O  0.80340180  0.26442915  0.77750880    -1.08900
O654        O  0.80637316  0.21257721  0.72058819    -1.08400
C655        C  0.76580234  0.24126063  0.67873722     1.06200
C656        C  0.76082360  0.23415592  0.81699601     1.08800
C657        C  0.83722331  0.17346094  0.67947915     1.06400
C658        C  0.83250248  0.31125574  0.68453491     1.06800
C659        C  0.82396240  0.30476876  0.82165639     1.06300
C660        C  0.83246415  0.16712062  0.81643582     1.05900
C661        C  0.76547888  0.16869286  0.74279902     1.06300
C662        C  0.76232427  0.30728873  0.74992108     1.05800
H663        H  0.79247429  0.19757175  0.78587375     0.32500
O664        O  0.80381838  0.20978897  0.77568160    -1.30000
H665        H  0.79415927  0.27896851  0.71213951     0.32500
O666        O  0.80519996  0.26741461  0.72337588    -1.31400
O667        O  0.28778792  0.23971213  0.17349718    -0.86900
O668        O  0.28739133  0.24365424  0.32697600    -0.87000
O669        O  0.25525157  0.19589659  0.24947444    -0.88700
O670        O  0.25426795  0.28382420  0.24823077    -0.87500
O671        O  0.28743294  0.31629056  0.24983389    -0.87000
O672        O  0.28700275  0.16218529  0.25240005    -0.88400
O673        O  0.25547421  0.24546111  0.29349640    -0.86900
O674        O  0.25448731  0.23932923  0.20577438    -0.86500
Zr675      Zr  0.27698056  0.24011954  0.24940485     2.84300
O676        O  0.30418415  0.26796888  0.27574554    -1.08500
O677        O  0.30419704  0.21163890  0.22338524    -1.09200
C678        C  0.26280705  0.23989610  0.18105577     1.06200
C679        C  0.26295139  0.24618809  0.31855411     1.06200
C680        C  0.26248564  0.17073065  0.25035090     1.09200
C681        C  0.26253515  0.30858913  0.24973732     1.06900
H682        H  0.29162482  0.20238948  0.28981223     0.32500
O683        O  0.30311651  0.21307137  0.27818637    -1.29400
H684        H  0.29329195  0.27796397  0.20979987     0.32200
O685        O  0.30435928  0.26683992  0.22140377    -1.31100
O686        O  0.37381632  0.24404071  0.32673336    -0.86900
O687        O  0.37593370  0.23740136  0.17327829    -0.88400
O688        O  0.33237159  0.16346578  0.29679215    -0.86900
O689        O  0.32688378  0.31762026  0.29199796    -0.87000
O690        O  0.33157048  0.31583409  0.20362093    -0.86700
O691        O  0.32703845  0.16241720  0.20771554    -0.86500
O692        O  0.40738786  0.19436575  0.25130652    -0.86900
O693        O  0.40673719  0.28349600  0.24506671    -0.86300
O694        O  0.37415345  0.16187414  0.24969760    -0.87400
O695        O  0.37522250  0.31751927  0.24594494    -0.86600
O696        O  0.33113842  0.19808827  0.32769688    -0.87000
O697        O  0.32897683  0.19411573  0.17377734    -0.86700
O698        O  0.33342874  0.28138692  0.17255562    -0.86300
O699        O  0.32589437  0.28592827  0.32589486    -0.86700
O700        O  0.40766071  0.24229475  0.29519013    -0.87000
O701        O  0.40754463  0.23800518  0.20707978    -0.88400
Zr702      Zr  0.33056882  0.24152937  0.30430338     2.83100
Zr703      Zr  0.33181974  0.23810658  0.19563230     2.83500
Zr704      Zr  0.33068528  0.18470094  0.25190223     2.84100
Zr705      Zr  0.33154875  0.29471882  0.24833422     2.83400
Zr706      Zr  0.38552610  0.23912677  0.25096789     2.84200
O707        O  0.35877125  0.26583077  0.22262962    -1.08900
O708        O  0.35796769  0.21261562  0.27880444    -1.08400
C709        C  0.39888887  0.24421861  0.31978960     1.06200
C710        C  0.40055774  0.23749109  0.18190648     1.08800
C711        C  0.33211563  0.17268781  0.32131918     1.06400
C712        C  0.32454570  0.31059575  0.31712962     1.06800
C713        C  0.33287604  0.30669169  0.17913691     1.06300
C714        C  0.32661766  0.16958245  0.18249722     1.05900
C715        C  0.39906306  0.16949775  0.24994040     1.06300
C716        C  0.39970824  0.30874527  0.24384375     1.05800
H717        H  0.36948264  0.19942847  0.21282954     0.32500
O718        O  0.35843797  0.21107073  0.22395203    -1.30000
H719        H  0.36956249  0.28022626  0.28793406     0.32500
O720        O  0.35857084  0.26835140  0.27700799    -1.31400
C721        C  0.82489854  0.08070715  0.64358494    -0.18200
C722        C  0.82470786  0.06273721  0.62162646    -0.20400
C723        C  0.83322909  0.07134943  0.59592441     0.20300
C724        C  0.84282260  0.09814531  0.59264445    -0.03300
C725        C  0.84313394  0.11618310  0.61474223    -0.06400
C726        C  0.83364769  0.10757256  0.64021739     0.20600
C727        C  0.85222034  0.14307903  0.61110140     0.18700
C728        C  0.86190674  0.15143375  0.58582210    -0.17800
C729        C  0.86143020  0.13364724  0.56392681    -0.20100
C730        C  0.85150175  0.10720876  0.56709910     0.20200
C731        C  0.84983473  0.08987905  0.54494952    -0.33100
C732        C  0.83994109  0.06323034  0.54764097     0.00900
C733        C  0.83195102  0.05391730  0.57335206    -0.24400
C734        C  0.83234587  0.12621373  0.66159585    -0.29000
C735        C  0.84014233  0.15337238  0.65762901     0.06600
C736        C  0.85069650  0.16143439  0.63253727    -0.27700
H737        H  0.81773630  0.07373116  0.66309386     0.11300
H738        H  0.81746473  0.04224102  0.62465211     0.12400
H739        H  0.86924334  0.17191183  0.58282581     0.11500
H740        H  0.86844548  0.14070365  0.54439123     0.10800
H741        H  0.85633512  0.09742928  0.52541764     0.16100
H742        H  0.82434084  0.03345574  0.57569413     0.12000
H743        H  0.82444749  0.11979417  0.68102182     0.14900
H744        H  0.85737505  0.18215586  0.62952921     0.14700
C745        C  0.72249860  0.27939921  0.56776238    -0.18200
C746        C  0.74117549  0.27595990  0.58860734    -0.20400
C747        C  0.73419026  0.26136724  0.61193248     0.20300
C748        C  0.70791713  0.25069128  0.61460663    -0.03300
C749        C  0.68909805  0.25395786  0.59341491    -0.06400
C750        C  0.69663867  0.26805805  0.56979903     0.20600
C751        C  0.66300063  0.24263987  0.59559641     0.18700
C752        C  0.65576415  0.22894941  0.61942329    -0.17800
C753        C  0.67433605  0.22599518  0.64059742    -0.20100
C754        C  0.70055661  0.23653369  0.63828894     0.20200
C755        C  0.71953307  0.23324225  0.65919648    -0.33100
C756        C  0.74587869  0.24359808  0.65648949     0.00900
C757        C  0.75302032  0.25743748  0.63266045    -0.24400
C758        C  0.67858650  0.26974106  0.54817797    -0.29000
C759        C  0.65310970  0.25724103  0.54947890     0.06600
C760        C  0.64503340  0.24444844  0.57357794    -0.27700
H761        H  0.72846644  0.29047157  0.54979617     0.11300
H762        H  0.76116263  0.28455573  0.58639947     0.12400
H763        H  0.63582175  0.22024934  0.62157105     0.11500
H764        H  0.66826704  0.21519883  0.65868825     0.10800
H765        H  0.71387174  0.22251007  0.67747292     0.16100
H766        H  0.77312518  0.26580593  0.63050451     0.12000
H767        H  0.68479082  0.28003620  0.52981113     0.14900
H768        H  0.62543501  0.23478910  0.57468592     0.14700
C769        C  0.72388793  0.23720843  0.91090328    -0.18200
C770        C  0.70176741  0.24011595  0.92840142    -0.20400
C771        C  0.67537837  0.24110029  0.91814632     0.20300
C772        C  0.67134962  0.23865747  0.88995583    -0.03300
C773        C  0.69361360  0.23586509  0.87233554    -0.06400
C774        C  0.72007354  0.23541309  0.88277639     0.20600
C775        C  0.68934053  0.23399439  0.84419332     0.18700
C776        C  0.66301805  0.23398251  0.83390209    -0.17800
C777        C  0.64103861  0.23657057  0.85130013    -0.20100
C778        C  0.64506018  0.23931934  0.87924463     0.20200
C779        C  0.62312560  0.24286504  0.89654293    -0.33100
C780        C  0.62669135  0.24563536  0.92470817     0.00900
C781        C  0.65297225  0.24454726  0.93543616    -0.24400
C782        C  0.74215365  0.23387401  0.86483789    -0.29000
C783        C  0.73798428  0.23322530  0.83657818     0.06600
C784        C  0.71139440  0.23273702  0.82665185    -0.27700
H785        H  0.74402550  0.23676329  0.91935943     0.11300
H786        H  0.70532708  0.24179426  0.94995717     0.12400
H787        H  0.65943735  0.23231061  0.81234272     0.11500
H788        H  0.62088427  0.23676939  0.84285148     0.10800
H789        H  0.60309128  0.24330457  0.88780966     0.16100
H790        H  0.65598972  0.24650130  0.95705805     0.12000
H791        H  0.76248644  0.23396890  0.87284390     0.14900
H792        H  0.70768527  0.23190790  0.80506103     0.14700
C793        C  0.72133243  0.39509430  0.72205135    -0.18200
C794        C  0.69969330  0.41341297  0.72284375    -0.20400
C795        C  0.67668820  0.40782963  0.73848066     0.20300
C796        C  0.67560841  0.38348946  0.75351503    -0.03300
C797        C  0.69731469  0.36492265  0.75254915    -0.06400
C798        C  0.72038801  0.37078006  0.73684784     0.20600
C799        C  0.69576444  0.34036054  0.76711959     0.18700
C800        C  0.67290680  0.33472452  0.78284051    -0.17800
C801        C  0.65155825  0.35314723  0.78394503    -0.20100
C802        C  0.65261996  0.37741669  0.76916593     0.20200
C803        C  0.63066402  0.39523344  0.76909849    -0.33100
C804        C  0.63094499  0.41901886  0.75330221     0.00900
C805        C  0.65440447  0.42562491  0.73865835    -0.24400
C806        C  0.74196011  0.35215813  0.73621723    -0.29000
C807        C  0.74028339  0.32751791  0.75056259     0.06600
C808        C  0.71704635  0.32178516  0.76575793    -0.27700
H809        H  0.73877157  0.39989698  0.70974034     0.11300
H810        H  0.70087842  0.43188514  0.71104796     0.12400
H811        H  0.67148964  0.31599068  0.79420891     0.11500
H812        H  0.63402173  0.34822102  0.79606843     0.10800
H813        H  0.61286551  0.39005668  0.78075551     0.16100
H814        H  0.65481904  0.44383760  0.72640509     0.12000
H815        H  0.75975581  0.35655342  0.72424471     0.14900
H816        H  0.71572861  0.30291646  0.77695207     0.14700
C817        C  0.65175359  0.22973420  0.37974928    -0.18200
C818        C  0.66952637  0.22702464  0.35780279    -0.20400
C819        C  0.69650128  0.23546081  0.36005276     0.20300
C820        C  0.70557760  0.24669393  0.38468069    -0.03300
C821        C  0.68779532  0.24925626  0.40674080    -0.06400
C822        C  0.66069528  0.24075477  0.40438222     0.20600
C823        C  0.69730100  0.26018416  0.43127522     0.18700
C824        C  0.72413594  0.26867138  0.43368154    -0.17800
C825        C  0.74162734  0.26636051  0.41183179    -0.20100
C826        C  0.73253566  0.25535845  0.38738886     0.20200
C827        C  0.75014658  0.25289314  0.36568519    -0.33100
C828        C  0.74157240  0.24161967  0.34110993     0.00900
C829        C  0.71463642  0.23295708  0.33826862    -0.24400
C830        C  0.64335621  0.24297256  0.42689664    -0.29000
C831        C  0.65319703  0.25317505  0.45160527     0.06600
C832        C  0.68001477  0.26215726  0.45328110    -0.27700
H833        H  0.63107261  0.22303722  0.37751382     0.11300
H834        H  0.66217335  0.21833306  0.33907915     0.12400
H835        H  0.73162018  0.27703252  0.45250844     0.11500
H836        H  0.76231833  0.27304890  0.41409372     0.10800
H837        H  0.77069525  0.26004701  0.36798582     0.16100
H838        H  0.70789866  0.22421381  0.31932363     0.12000
H839        H  0.62268331  0.23600515  0.42547448     0.14900
H840        H  0.68774815  0.27049760  0.47203226     0.14700
C841        C  0.81601962  0.08141074  0.35856752    -0.18200
C842        C  0.81799849  0.06280156  0.37986388    -0.20400
C843        C  0.83203477  0.06956649  0.40356593     0.20300
C844        C  0.84458236  0.09521946  0.40559158    -0.03300
C845        C  0.84208499  0.11417126  0.38440526    -0.06400
C846        C  0.82773812  0.10722801  0.36076426     0.20600
C847        C  0.85333902  0.14031576  0.38721758     0.18700
C848        C  0.86785825  0.14696613  0.41061451    -0.17800
C849        C  0.87075021  0.12803504  0.43138204    -0.20100
C850        C  0.85875656  0.10236982  0.42923293     0.20200
C851        C  0.85944388  0.08434853  0.45096306    -0.33100
C852        C  0.84539815  0.05958689  0.44991134     0.00900
C853        C  0.83260901  0.05177273  0.42579054    -0.24400
C854        C  0.82507404  0.12636860  0.33994224    -0.29000
C855        C  0.83588870  0.15256832  0.34288310     0.06600
C856        C  0.84978363  0.15943343  0.36666111    -0.27700
H857        H  0.80488454  0.07578921  0.34057164     0.11300
H858        H  0.80820685  0.04326178  0.37795225     0.12400
H859        H  0.87676145  0.16689469  0.41295802     0.11500
H860        H  0.88171200  0.13374243  0.44946337     0.10800
H861        H  0.86973731  0.09031746  0.46937665     0.16100
H862        H  0.82176347  0.03271539  0.42489175     0.12000
H863        H  0.81418204  0.12106795  0.32168231     0.14900
H864        H  0.85835643  0.17953497  0.36893438     0.14700
C865        C  0.51852244  0.22371812  0.14469100    -0.18200
C866        C  0.49705720  0.22596260  0.16270580    -0.20400
C867        C  0.47091919  0.23066537  0.15307126     0.20300
C868        C  0.46627121  0.23323616  0.12504073    -0.03300
C869        C  0.48810369  0.23139474  0.10680463    -0.06400
C870        C  0.51422221  0.22658423  0.11681914     0.20600
C871        C  0.48390192  0.23462269  0.07871347     0.18700
C872        C  0.45756617  0.23899371  0.06918889    -0.17800
C873        C  0.43577925  0.24043891  0.08730213    -0.20100
C874        C  0.43991449  0.23769086  0.11530826     0.20200
C875        C  0.41827959  0.23916919  0.13377990    -0.33100
C876        C  0.42288115  0.23652941  0.16183879     0.00900
C877        C  0.44939164  0.23255440  0.17112892    -0.24400
C878        C  0.53589755  0.22547632  0.09899620    -0.29000
C879        C  0.53247463  0.23021730  0.07110609     0.06600
C880        C  0.50620828  0.23412188  0.06091433    -0.27700
H881        H  0.53857487  0.22008944  0.15259704     0.11300
H882        H  0.50089017  0.22391936  0.18418917     0.12400
H883        H  0.45382469  0.24144680  0.04773945     0.11500
H884        H  0.41569755  0.24385723  0.07940377     0.10800
H885        H  0.39798751  0.24239286  0.12633572     0.16100
H886        H  0.45340265  0.23044592  0.19258093     0.12000
H887        H  0.55579091  0.22194356  0.10733329     0.14900
H888        H  0.50321508  0.23744206  0.03945589     0.14700
C889        C  0.71856304  0.26548672  0.09464793    -0.18200
C890        C  0.69722129  0.26438846  0.07606775    -0.20400
C891        C  0.67498412  0.24738776  0.08071308     0.20300
C892        C  0.67447395  0.23111319  0.10424381    -0.03300
C893        C  0.69599487  0.23217747  0.12294229    -0.06400
C894        C  0.71814150  0.24951978  0.11819796     0.20600
C895        C  0.69513106  0.21613185  0.14658241     0.18700
C896        C  0.67315794  0.19882321  0.15109761    -0.17800
C897        C  0.65182881  0.19788438  0.13270002    -0.20100
C898        C  0.65219494  0.21414600  0.10942174     0.20200
C899        C  0.63028265  0.21424949  0.09166461    -0.33100
C900        C  0.63012927  0.23100572  0.06861356     0.00900
C901        C  0.65288111  0.24699217  0.06279416    -0.24400
C902        C  0.73929449  0.25066132  0.13719566    -0.29000
C903        C  0.73821772  0.23500834  0.16103054     0.06600
C904        C  0.71609331  0.21781594  0.16547517    -0.27700
H905        H  0.73534162  0.27896671  0.09066459     0.11300
H906        H  0.69797486  0.27708495  0.05819885     0.12400
H907        H  0.67231135  0.18624292  0.16904827     0.11500
H908        H  0.63487203  0.18466701  0.13685279     0.10800
H909        H  0.61290313  0.20169742  0.09620875     0.16100
H910        H  0.65279496  0.26008892  0.04518863     0.12000
H911        H  0.75628211  0.26405285  0.13373875     0.14900
H912        H  0.71532986  0.20552219  0.18365048     0.14700
C913        C  0.45836905  0.42048977  0.24691829    -0.18200
C914        C  0.43620305  0.40282641  0.24730625    -0.20400
C915        C  0.43953514  0.37509931  0.24168359     0.20300
C916        C  0.46533710  0.36534396  0.23458828    -0.03300
C917        C  0.48765151  0.38316714  0.23407287    -0.06400
C918        C  0.48428915  0.41079611  0.24082133     0.20600
C919        C  0.51350455  0.37306031  0.22786323     0.18700
C920        C  0.51676135  0.34561630  0.22116076    -0.17800
C921        C  0.49473303  0.32799723  0.22175811    -0.20100
C922        C  0.46908900  0.33756637  0.22896326     0.20200
C923        C  0.44738064  0.31961350  0.23143454    -0.33100
C924        C  0.42174708  0.32880744  0.23956491     0.00900
C925        C  0.41780259  0.35680607  0.24389540    -0.24400
C926        C  0.50702717  0.42787890  0.24245797    -0.29000
C927        C  0.53302113  0.41744180  0.23780073     0.06600
C928        C  0.53586770  0.39023701  0.22960423    -0.27700
H929        H  0.45532574  0.44163315  0.25200525     0.11300
H930        H  0.41654171  0.41075461  0.25264630     0.12400
H931        H  0.53649221  0.33761282  0.21617331     0.11500
H932        H  0.49787711  0.30674363  0.21718525     0.10800
H933        H  0.45066904  0.29825706  0.22743631     0.16100
H934        H  0.39811886  0.36424007  0.24986459     0.12000
H935        H  0.50462954  0.44882818  0.24861656     0.14900
H936        H  0.55573282  0.38208194  0.22539155     0.14700
C937        C  0.66756557  0.33007940  0.28082975    -0.18200
C938        C  0.64604334  0.34831649  0.28161437    -0.20400
C939        C  0.64870225  0.37429477  0.27035403     0.20300
C940        C  0.67334591  0.38217146  0.25848981    -0.03300
C941        C  0.69508066  0.36374914  0.25769460    -0.06400
C942        C  0.69208166  0.33757201  0.26882424     0.20600
C943        C  0.71962693  0.37137046  0.24540485     0.18700
C944        C  0.72215067  0.39727225  0.23393188    -0.17800
C945        C  0.70056331  0.41553312  0.23467026    -0.20100
C946        C  0.67606557  0.40820357  0.24687272     0.20200
C947        C  0.65393127  0.42601266  0.24676923    -0.33100
C948        C  0.62901489  0.41774218  0.25750032     0.00900
C949        C  0.62681138  0.39214935  0.26987332    -0.24400
C950        C  0.71351902  0.31920508  0.26746907    -0.29000
C951        C  0.73800755  0.32658324  0.25516457     0.06600
C952        C  0.74105448  0.35282500  0.24447140    -0.27700
H953        H  0.66496436  0.31003312  0.28941697     0.11300
H954        H  0.62719214  0.34197834  0.29072137     0.12400
H955        H  0.74078455  0.40335788  0.22422735     0.11500
H956        H  0.70294748  0.43531445  0.22545307     0.10800
H957        H  0.65564562  0.44561283  0.23700295     0.16100
H958        H  0.60766410  0.38573974  0.27833251     0.12000
H959        H  0.71110578  0.29908700  0.27598597     0.14900
H960        H  0.75983474  0.35857325  0.23481561     0.14700
C961        C  0.94740140  0.41737274  0.79900422    -0.18200
C962        C  0.92903315  0.39602709  0.79680238    -0.20400
C963        C  0.93431457  0.37412486  0.77950627     0.20300
C964        C  0.95869119  0.37333983  0.76476627    -0.03300
C965        C  0.97716796  0.39507055  0.76679523    -0.06400
C966        C  0.97124439  0.41729631  0.78375414     0.20600
C967        C  0.00106461  0.39499180  0.75122859     0.18700
C968        C  0.00657412  0.37275043  0.73436136    -0.17800
C969        C  0.98839866  0.35102302  0.73260760    -0.20100
C970        C  0.96425446  0.35121964  0.74752374     0.20200
C971        C  0.94533027  0.33001775  0.74519539    -0.33100
C972        C  0.92061920  0.33115392  0.75928801     0.00900
C973        C  0.91540369  0.35323720  0.77644417    -0.24400
C974        C  0.98862808  0.43962583  0.78431542    -0.29000
C975        C  0.01177764  0.44031855  0.76795692     0.06600
C976        C  0.01839633  0.41760542  0.75205917    -0.27700
H977        H  0.94264509  0.43427153  0.81217368     0.11300
H978        H  0.91049153  0.39682791  0.80837490     0.12400
H979        H  0.02477666  0.37231904  0.72223811     0.11500
H980        H  0.99303148  0.33425431  0.71923600     0.10800
H981        H  0.94946181  0.31304011  0.73189727     0.16100
H982        H  0.89660211  0.35404102  0.78762431     0.12000
H983        H  0.98362244  0.45699689  0.79680089     0.14900
H984        H  0.03618099  0.41813813  0.73930996     0.14700
C985        C  0.00537866  0.60768918  0.73215912    -0.18200
C986        C  0.98656815  0.62874167  0.72913168    -0.20400
C987        C  0.96094990  0.62693733  0.74118338     0.20300
C988        C  0.95445002  0.60390191  0.75679810    -0.03300
C989        C  0.97341405  0.58280368  0.75994874    -0.06400
C990        C  0.99894879  0.58447303  0.74735438     0.20600
C991        C  0.96650727  0.55972876  0.77525793     0.18700
C992        C  0.94123166  0.55813303  0.78786374    -0.17800
C993        C  0.92252496  0.57897256  0.78478536    -0.20100
C994        C  0.92879535  0.60168500  0.76900571     0.20200
C995        C  0.90969585  0.62209567  0.76518647    -0.33100
C996        C  0.91584098  0.64505564  0.74968306     0.00900
C997        C  0.94162173  0.64757088  0.73788596    -0.24400
C998        C  0.01711613  0.56253346  0.74956573    -0.29000
C999        C  0.00967700  0.53896475  0.76389052     0.06600
C1000       C  0.98461043  0.53818483  0.77715454    -0.27700
H1001       H  0.02483964  0.60943033  0.72234948     0.11300
H1002       H  0.99196089  0.64630628  0.71712738     0.12400
H1003       H  0.93576496  0.54054064  0.79979017     0.11500
H1004       H  0.90300083  0.57715998  0.79447325     0.10800
H1005       H  0.89011110  0.62035291  0.77480903     0.16100
H1006       H  0.94650756  0.66540253  0.72603150     0.12000
H1007       H  0.03637436  0.56330206  0.73922621     0.30900
H1008       H  0.97879445  0.52032729  0.78854443     0.14700
C1009       C  0.80158018  0.42577932  0.64556759    -0.18200
C1010       C  0.80524107  0.40460525  0.66385758    -0.20400
C1011       C  0.81645342  0.38001462  0.65521829     0.20300
C1012       C  0.82389086  0.37655270  0.62787139    -0.03300
C1013       C  0.82041949  0.39806308  0.60941803    -0.06400
C1014       C  0.80928864  0.42272298  0.61844320     0.20600
C1015       C  0.82811912  0.39495981  0.58205036     0.18700
C1016       C  0.83888018  0.37008175  0.57342527    -0.17800
C1017       C  0.84201495  0.34857067  0.59170182    -0.20100
C1018       C  0.83465645  0.35162540  0.61898273     0.20200
C1019       C  0.83767890  0.33023031  0.63752465    -0.33100
C1020       C  0.83046348  0.33373004  0.66487630     0.00900
C1021       C  0.82002318  0.35876202  0.67348650    -0.24400
C1022       C  0.80642000  0.44417138  0.60035602    -0.29000
C1023       C  0.81491268  0.44179790  0.57328736     0.06600
C1024       C  0.82527174  0.41692711  0.56402909    -0.27700
H1025       H  0.79291940  0.44464514  0.65268957     0.11300
H1026       H  0.79925439  0.40744386  0.68475653     0.12400
H1027       H  0.84488536  0.36725661  0.55254036     0.11500
H1028       H  0.85028260  0.32956011  0.58450968     0.10800
H1029       H  0.84569217  0.31095946  0.63070865     0.16100
H1030       H  0.81399459  0.36157812  0.69439056     0.12000
H1031       H  0.79795238  0.46308419  0.60763686     0.14900
H1032       H  0.83185379  0.41496801  0.54321071     0.14700
C1033       C  0.84014460  0.63267873  0.58703514    -0.18200
C1034       C  0.83795453  0.61058207  0.56932534    -0.20400
C1035       C  0.82498489  0.58665867  0.57760726     0.20300
C1036       C  0.81359867  0.58526898  0.60377656    -0.03300
C1037       C  0.81571535  0.60745041  0.62149655    -0.06400
C1038       C  0.82926994  0.63123878  0.61324599     0.20600
C1039       C  0.80462331  0.60556872  0.64770526     0.18700
C1040       C  0.79115796  0.58202507  0.65591254    -0.17800
C1041       C  0.78916119  0.56005327  0.63843084    -0.20100
C1042       C  0.80058129  0.56142585  0.61256052     0.20200
C1043       C  0.79986899  0.53894510  0.59569787    -0.33100
C1044       C  0.81208358  0.53964513  0.57014434     0.00900
C1045       C  0.82390271  0.56375651  0.56068892    -0.24400
C1046       C  0.83196036  0.65286629  0.63157163    -0.29000
C1047       C  0.82143024  0.65054861  0.65790761     0.06600
C1048       C  0.80747208  0.62707531  0.66555987    -0.27700
H1049       H  0.85056600  0.65077941  0.58033011     0.11300
H1050       H  0.84676546  0.61204842  0.54931791     0.12400
H1051       H  0.78249837  0.58047278  0.67598981     0.11500
H1052       H  0.77904873  0.54182791  0.64528914     0.10800
H1053       H  0.79024541  0.52051227  0.60278936     0.16100
H1054       H  0.83325428  0.56426145  0.54086961     0.12000
H1055       H  0.84271583  0.67106034  0.62565248     0.14900
H1056       H  0.79884078  0.62544431  0.68567002     0.14700
C1057       C  0.72032588  0.71348431  0.90549218    -0.18200
C1058       C  0.69935749  0.71525011  0.92442885    -0.20400
C1059       C  0.67771575  0.73309543  0.92022496     0.20300
C1060       C  0.67757980  0.74981518  0.89701331    -0.03300
C1061       C  0.69860998  0.74791714  0.87785487    -0.06400
C1062       C  0.72001060  0.72951532  0.88199797     0.20600
C1063       C  0.69796858  0.76415254  0.85433833     0.18700
C1064       C  0.67684421  0.78266835  0.85056116    -0.17800
C1065       C  0.65606146  0.78457502  0.86953333    -0.20100
C1066       C  0.65604586  0.76793623  0.89252838     0.20200
C1067       C  0.63426524  0.76827644  0.91045300    -0.33100
C1068       C  0.63346550  0.75054790  0.93266393     0.00900
C1069       C  0.65566470  0.73372574  0.93811510    -0.24400
C1070       C  0.74056725  0.72740805  0.86248184    -0.29000
C1071       C  0.73965441  0.74315120  0.83874209     0.06600
C1072       C  0.71834306  0.76148728  0.83488684    -0.27700
H1073       H  0.73664481  0.69933896  0.90907372     0.11300
H1074       H  0.69986556  0.70234916  0.94216147     0.12400
H1075       H  0.67621956  0.79544619  0.83274399     0.11500
H1076       H  0.63970802  0.79868667  0.86594224     0.10800
H1077       H  0.61723236  0.78145751  0.90640119     0.16100
H1078       H  0.65498836  0.71993472  0.95518031     0.12000
H1079       H  0.75697576  0.71320319  0.86547179     0.14900
H1080       H  0.71780488  0.77391249  0.81679224     0.14700
C1081       C  0.72018091  0.57970236  0.74951138    -0.18200
C1082       C  0.69916428  0.56112105  0.74580357    -0.20400
C1083       C  0.67542349  0.56889395  0.73247498     0.20300
C1084       C  0.67308623  0.59561297  0.72240231    -0.03300
C1085       C  0.69414636  0.61447191  0.72646415    -0.06400
C1086       C  0.71775715  0.60647461  0.74019361     0.20600
C1087       C  0.69138510  0.64140818  0.71718229     0.18700
C1088       C  0.66801555  0.64898278  0.70306419    -0.17800
C1089       C  0.64724094  0.63026520  0.69889179    -0.20100
C1090       C  0.64944751  0.60370551  0.70885048     0.20200
C1091       C  0.62798903  0.58546154  0.70639781    -0.33100
C1092       C  0.62942327  0.55931297  0.71782700     0.00900
C1093       C  0.65360737  0.55080972  0.72998449    -0.24400
C1094       C  0.73838997  0.62543659  0.74469154    -0.29000
C1095       C  0.73550434  0.65252806  0.73629111     0.06600
C1096       C  0.71193097  0.66031434  0.72239334    -0.27700
H1097       H  0.73820914  0.57322727  0.76004800     0.11300
H1098       H  0.70136428  0.54073800  0.75365778     0.12400
H1099       H  0.66566531  0.66947367  0.69552171     0.11500
H1100       H  0.62921362  0.63671635  0.68832159     0.10800
H1101       H  0.60956654  0.59216119  0.69667426     0.16100
H1102       H  0.65491609  0.53076862  0.73887956     0.12000
H1103       H  0.75649570  0.61923194  0.75527858     0.14900
H1104       H  0.70969960  0.68102156  0.71537196     0.14700
C1105       C  0.84211576  0.91958763  0.62208248    -0.18200
C1106       C  0.84406022  0.90172307  0.64411345    -0.20400
C1107       C  0.83424541  0.87506909  0.64211473     0.20300
C1108       C  0.82204902  0.86655690  0.61774381    -0.03300
C1109       C  0.82024222  0.88444313  0.59556549    -0.06400
C1110       C  0.83047876  0.91107677  0.59758634     0.20600
C1111       C  0.80873455  0.87536309  0.57112080     0.18700
C1112       C  0.79857643  0.84894861  0.56909129    -0.17800
C1113       C  0.80023349  0.83137661  0.59103131    -0.20100
C1114       C  0.81210675  0.83991255  0.61524791     0.20200
C1115       C  0.81464151  0.82191714  0.63675622    -0.33100
C1116       C  0.82730721  0.82977842  0.66090042     0.00900
C1117       C  0.83672495  0.85658218  0.66373462    -0.24400
C1118       C  0.82964260  0.92826763  0.57479409    -0.29000
C1119       C  0.81917551  0.91873688  0.55005010     0.06600
C1120       C  0.80822459  0.89249065  0.54875037    -0.27700
H1121       H  0.85010153  0.93993235  0.62407056     0.11300
H1122       H  0.85347879  0.90867954  0.66262368     0.12400
H1123       H  0.78971633  0.84173820  0.55039263     0.11500
H1124       H  0.79274419  0.81091732  0.58889586     0.10800
H1125       H  0.80677868  0.80152012  0.63455754     0.16100
H1126       H  0.84640936  0.86280471  0.68237807     0.12000
H1127       H  0.83810315  0.94848767  0.57599398     0.14900
H1128       H  0.79973226  0.88499391  0.52997726     0.14700
C1129       C  0.72417707  0.77411251  0.56463670    -0.18200
C1130       C  0.74178810  0.77086313  0.58627445    -0.20400
C1131       C  0.73236003  0.76108710  0.61112305     0.20300
C1132       C  0.70495400  0.75412187  0.61422712    -0.03300
C1133       C  0.68722381  0.75668594  0.59204554    -0.06400
C1134       C  0.69699927  0.76690010  0.56731530     0.20600
C1135       C  0.65999110  0.74860770  0.59439838     0.18700
C1136       C  0.65072624  0.73854686  0.61934465    -0.17800
C1137       C  0.66823949  0.73653590  0.64160113    -0.20100
C1138       C  0.69547311  0.74412937  0.63922927     0.20200
C1139       C  0.71357359  0.74145916  0.66109339    -0.33100
C1140       C  0.74110000  0.74796425  0.65780344     0.00900
C1141       C  0.75011340  0.75784719  0.63272709    -0.24400
C1142       C  0.67975661  0.76905580  0.54526426    -0.29000
C1143       C  0.65282512  0.76024878  0.54678244     0.06600
C1144       C  0.64285677  0.75029387  0.57160749    -0.27700
H1145       H  0.73195355  0.78172657  0.54560250     0.11300
H1146       H  0.76285943  0.77571252  0.58347264     0.12400
H1147       H  0.62995389  0.73215398  0.62163236     0.11500
H1148       H  0.66056540  0.72867514  0.66056770     0.10800
H1149       H  0.70643423  0.73370793  0.68032227     0.16100
H1150       H  0.77113204  0.76320537  0.62994215     0.12000
H1151       H  0.68777209  0.77712160  0.52651391     0.14900
H1152       H  0.62215608  0.74341246  0.57303095     0.14700
C1153       C  0.65314391  0.74823984  0.37603860    -0.18200
C1154       C  0.67162101  0.74371621  0.35505009    -0.20400
C1155       C  0.69924461  0.74852562  0.35897858     0.20300
C1156       C  0.70819434  0.75887400  0.38400433    -0.03300
C1157       C  0.68954875  0.76369814  0.40504768    -0.06400
C1158       C  0.66194370  0.75770828  0.40132314     0.20600
C1159       C  0.69874878  0.77340377  0.43019671     0.18700
C1160       C  0.72623508  0.77880911  0.43402078    -0.17800
C1161       C  0.74469011  0.77331322  0.41346128    -0.20100
C1162       C  0.73591100  0.76343586  0.38841750     0.20200
C1163       C  0.75447128  0.75761306  0.36793177    -0.33100
C1164       C  0.74580419  0.74746055  0.34281877     0.00900
C1165       C  0.71810174  0.74294454  0.33848334    -0.24400
C1166       C  0.64399326  0.75986939  0.42334606    -0.29000
C1167       C  0.65351597  0.76778226  0.44896459     0.06600
C1168       C  0.68067152  0.77579653  0.45171151    -0.27700
H1169       H  0.63203849  0.74372064  0.37268313     0.11300
H1170       H  0.66435435  0.73594808  0.33589615     0.12400
H1171       H  0.73362029  0.78608638  0.45333049     0.11500
H1172       H  0.76591451  0.77571792  0.41751742     0.10800
H1173       H  0.77570136  0.76141402  0.37147384     0.16100
H1174       H  0.71122979  0.73500804  0.31923855     0.12000
H1175       H  0.62310992  0.75390084  0.42092713     0.14900
H1176       H  0.68825518  0.78251957  0.47115304     0.14700
C1177       C  0.79755488  0.84869445  0.43253141    -0.18200
C1178       C  0.80092412  0.83029307  0.41143053    -0.20400
C1179       C  0.81468791  0.83779285  0.38788120     0.20300
C1180       C  0.82504989  0.86426613  0.38532543    -0.03300
C1181       C  0.82223606  0.88275939  0.40692812    -0.06400
C1182       C  0.80862222  0.87474872  0.43066584     0.20600
C1183       C  0.83350103  0.90897287  0.40503164     0.18700
C1184       C  0.84667028  0.91668013  0.38106140    -0.17800
C1185       C  0.84904363  0.89844903  0.35940432    -0.20100
C1186       C  0.83853709  0.87208231  0.36142474     0.20200
C1187       C  0.84132249  0.85332742  0.34012997    -0.33100
C1188       C  0.83136804  0.82672233  0.34289067     0.00900
C1189       C  0.81824115  0.81917153  0.36691287    -0.24400
C1190       C  0.80721354  0.89246659  0.45261351    -0.29000
C1191       C  0.81966104  0.91805563  0.45161575     0.06600
C1192       C  0.83209094  0.92658103  0.42744181    -0.27700
H1193       H  0.78696990  0.84228125  0.45061903     0.11300
H1194       H  0.79318110  0.81004592  0.41367677     0.12400
H1195       H  0.85535889  0.93673791  0.37914816     0.11500
H1196       H  0.85940373  0.90486854  0.34119886     0.10800
H1197       H  0.85150756  0.85926919  0.32165069     0.16100
H1198       H  0.81019972  0.79885192  0.36909746     0.12000
H1199       H  0.79714837  0.88586361  0.47094804     0.14900
H1200       H  0.84162669  0.94632519  0.42646740     0.14700
C1201       C  0.64457466  0.71769816  0.14733554    -0.18200
C1202       C  0.66632576  0.72073255  0.16493509    -0.20400
C1203       C  0.69200137  0.72700436  0.15487398     0.20300
C1204       C  0.69596053  0.72992122  0.12677090    -0.03300
C1205       C  0.67393212  0.72659839  0.10888887    -0.06400
C1206       C  0.64815899  0.72070751  0.11935572     0.20600
C1207       C  0.67753921  0.72967655  0.08071196     0.18700
C1208       C  0.70342720  0.73569213  0.07074925    -0.17800
C1209       C  0.72527121  0.73917709  0.08852366    -0.20100
C1210       C  0.72176302  0.73645747  0.11663040     0.20200
C1211       C  0.74345562  0.74010030  0.13480110    -0.33100
C1212       C  0.73956198  0.73710854  0.16296340     0.00900
C1213       C  0.71366616  0.73049883  0.17260026    -0.24400
C1214       C  0.62614192  0.71856641  0.10186244    -0.29000
C1215       C  0.62903295  0.72250248  0.07377445     0.06600
C1216       C  0.65505782  0.72747770  0.06323706    -0.27700
H1217       H  0.62485532  0.71321320  0.15565305     0.11300
H1218       H  0.66300234  0.71841421  0.18648058     0.12400
H1219       H  0.70671996  0.73809067  0.04921473     0.11500
H1220       H  0.74490523  0.74412085  0.08027196     0.10800
H1221       H  0.76326434  0.74516509  0.12704211     0.16100
H1222       H  0.71025261  0.72778416  0.19409294     0.12000
H1223       H  0.60645076  0.71451381  0.11046929     0.14900
H1224       H  0.65770591  0.73038332  0.04167069     0.14700
C1225       C  0.65440631  0.62600587  0.20715434    -0.18200
C1226       C  0.67581850  0.64428892  0.20882433    -0.20400
C1227       C  0.69778143  0.63883925  0.22579605     0.20300
C1228       C  0.69875942  0.61425338  0.24042170    -0.03300
C1229       C  0.67700392  0.59590566  0.23893570    -0.06400
C1230       C  0.65459153  0.60211081  0.22256227     0.20600
C1231       C  0.67727004  0.57184734  0.25448433     0.18700
C1232       C  0.69975091  0.56606048  0.27073558    -0.17800
C1233       C  0.72153901  0.58409498  0.27191520    -0.20100
C1234       C  0.72108148  0.60838670  0.25711738     0.20200
C1235       C  0.74217845  0.62724262  0.25918856    -0.33100
C1236       C  0.74061699  0.65220548  0.24555878     0.00900
C1237       C  0.71851357  0.65779758  0.22879156    -0.24400
C1238       C  0.63230801  0.58481082  0.22256018    -0.29000
C1239       C  0.63190197  0.56130530  0.23868467     0.06600
C1240       C  0.65470347  0.55452262  0.25412538    -0.27700
H1241       H  0.63738872  0.63087230  0.19430755     0.11300
H1242       H  0.67498217  0.66290981  0.19721341     0.12400
H1243       H  0.70033781  0.54774253  0.28281059     0.11500
H1244       H  0.73851960  0.57928815  0.28482198     0.10800
H1245       H  0.75935956  0.62292961  0.27204018     0.16100
H1246       H  0.71759856  0.67686933  0.21789698     0.12000
H1247       H  0.61486798  0.59002169  0.21040034     0.14900
H1248       H  0.65439699  0.53651660  0.26668946     0.14700
C1249       C  0.94131683  0.55520241  0.21687261    -0.18200
C1250       C  0.92309590  0.57674603  0.21759364    -0.20400
C1251       C  0.93060126  0.60155694  0.22916238     0.20300
C1252       C  0.95698312  0.60505676  0.23929950    -0.03300
C1253       C  0.97533544  0.58324122  0.23873025    -0.06400
C1254       C  0.96725284  0.55814504  0.22781671     0.20600
C1255       C  0.00143072  0.58627700  0.24981345     0.18700
C1256       C  0.00914699  0.61147387  0.26050828    -0.17800
C1257       C  0.99102243  0.63323635  0.26079935    -0.20100
C1258       C  0.96479318  0.63009714  0.25062647     0.20200
C1259       C  0.94602415  0.65129077  0.25217934    -0.33100
C1260       C  0.91940893  0.64747050  0.24313261     0.00900
C1261       C  0.91198915  0.62271275  0.23126478    -0.24400
C1262       C  0.98483687  0.53607534  0.22896782    -0.29000
C1263       C  0.01033718  0.53841700  0.24127023     0.06600
C1264       C  0.01889973  0.56380487  0.25089503    -0.27700
H1265       H  0.93491840  0.53603762  0.20829944     0.11300
H1266       H  0.90299094  0.57385923  0.20951780     0.12400
H1267       H  0.02907483  0.61423804  0.26902740     0.11500
H1268       H  0.99735491  0.65237731  0.26947382     0.10800
H1269       H  0.95188819  0.67043801  0.26120074     0.16100
H1270       H  0.89165467  0.61985416  0.22372760     0.12000
H1271       H  0.97819106  0.51664534  0.22115943     0.14900
H1272       H  0.03846542  0.56571668  0.26045522     0.14700
C1273       C  0.00985825  0.36582152  0.25387356    -0.18200
C1274       C  0.99191270  0.34383249  0.25226164    -0.20400
C1275       C  0.96387990  0.34814305  0.25246066     0.20300
C1276       C  0.95394328  0.37483353  0.25471720    -0.03300
C1277       C  0.97194905  0.39688677  0.25638635    -0.06400
C1278       C  0.00010034  0.39252475  0.25573466     0.20600
C1279       C  0.96163881  0.42339568  0.25846063     0.18700
C1280       C  0.93375955  0.42783380  0.25908503    -0.17800
C1281       C  0.91601145  0.40608863  0.25748708    -0.20100
C1282       C  0.92590748  0.37962578  0.25517762     0.20200
C1283       C  0.90803266  0.35798757  0.25321496    -0.33100
C1284       C  0.91745310  0.33129494  0.25060677     0.00900
C1285       C  0.94552974  0.32642068  0.25040542    -0.24400
C1286       C  0.01774664  0.41501817  0.25635426    -0.29000
C1287       C  0.00726789  0.44159019  0.25749663     0.06600
C1288       C  0.97922871  0.44527782  0.25936066    -0.27700
H1289       H  0.03135374  0.36195159  0.25344237     0.11300
H1290       H  0.99996228  0.32347395  0.25069231     0.12400
H1291       H  0.92566304  0.44818028  0.26061296     0.11500
H1292       H  0.89451464  0.40998968  0.25789821     0.10800
H1293       H  0.88657600  0.36212810  0.25376305     0.16100
H1294       H  0.95307943  0.30587759  0.24865056     0.12000
H1295       H  0.03933825  0.41190868  0.25509222     0.14900
H1296       H  0.97075752  0.46548179  0.26083792     0.14700
C1297       C  0.78488889  0.58267556  0.34219788    -0.18200
C1298       C  0.78024601  0.56151667  0.36037481    -0.20400
C1299       C  0.79280554  0.56145539  0.38579184     0.20300
C1300       C  0.80992151  0.58305220  0.39318792    -0.03300
C1301       C  0.81467889  0.60439151  0.37478653    -0.06400
C1302       C  0.80219121  0.60405698  0.34915360     0.20600
C1303       C  0.83207838  0.62589794  0.38192799     0.18700
C1304       C  0.84458796  0.62575675  0.40739814    -0.17800
C1305       C  0.83990929  0.60454198  0.42564272    -0.20100
C1306       C  0.82265558  0.58307324  0.41873998     0.20200
C1307       C  0.81862808  0.56118104  0.43650090    -0.33100
C1308       C  0.80257032  0.53906730  0.42863969     0.00900
C1309       C  0.78920892  0.53971944  0.40356670    -0.24400
C1310       C  0.80726748  0.62505204  0.33084587    -0.29000
C1311       C  0.82445880  0.64661918  0.33778046     0.06600
C1312       C  0.83667542  0.64706936  0.36343647    -0.27700
H1313       H  0.77511312  0.58221580  0.32260881     0.11300
H1314       H  0.76705527  0.54504576  0.35443844     0.12400
H1315       H  0.85808882  0.64201873  0.41317951     0.11500
H1316       H  0.84997435  0.60481653  0.44508571     0.10800
H1317       H  0.82914566  0.56065309  0.45571013     0.16100
H1318       H  0.77665986  0.52277812  0.39747643     0.12000
H1319       H  0.79749339  0.62480947  0.31122531     0.14900
H1320       H  0.84998250  0.66365016  0.36881350     0.14700
C1321       C  0.79123819  0.40182862  0.33784867    -0.18200
C1322       C  0.78670938  0.42298067  0.35601932    -0.20400
C1323       C  0.79528106  0.42077033  0.38294482     0.20300
C1324       C  0.80815862  0.39693701  0.39188449    -0.03300
C1325       C  0.81271770  0.37552798  0.37350647    -0.06400
C1326       C  0.80436401  0.37813859  0.34635083     0.20600
C1327       C  0.82561944  0.35158761  0.38225421     0.18700
C1328       C  0.83384801  0.34937523  0.40936547    -0.17800
C1329       C  0.82943641  0.37070060  0.42759167    -0.20100
C1330       C  0.81671139  0.39463075  0.41904524     0.20200
C1331       C  0.81309871  0.41659603  0.43685365    -0.33100
C1332       C  0.80139728  0.44084023  0.42755452     0.00900
C1333       C  0.79180429  0.44234436  0.40082929    -0.24400
C1334       C  0.80909888  0.35698495  0.32812063    -0.29000
C1335       C  0.82175765  0.33290893  0.33655520     0.06600
C1336       C  0.82990487  0.33030795  0.36374857    -0.27700
H1337       H  0.78455310  0.40403667  0.31710081     0.11300
H1338       H  0.77673488  0.44119237  0.34893975     0.12400
H1339       H  0.84377833  0.33116103  0.41646742     0.11500
H1340       H  0.83615395  0.36854366  0.44833276     0.10800
H1341       H  0.82052224  0.41527369  0.45743062     0.16100
H1342       H  0.78237670  0.46078521  0.39354337     0.12000
H1343       H  0.80239296  0.35910175  0.30735329     0.14900
H1344       H  0.83969257  0.31184722  0.37043870     0.14700
C1345       C  0.43699004  0.57866216  0.74630049    -0.18200
C1346       C  0.45850770  0.56052958  0.74260140    -0.20400
C1347       C  0.48452613  0.57013614  0.73666519     0.20300
C1348       C  0.48869918  0.59839116  0.73438173    -0.03300
C1349       C  0.46707950  0.61664283  0.73820881    -0.06400
C1350       C  0.44104802  0.60678063  0.74417277     0.20600
C1351       C  0.47161765  0.64479804  0.73615230     0.18700
C1352       C  0.49748026  0.65457020  0.73024357    -0.17800
C1353       C  0.51879541  0.63656817  0.72644050    -0.20100
C1354       C  0.51456802  0.60852276  0.72849684     0.20200
C1355       C  0.53599940  0.59057107  0.72506301    -0.33100
C1356       C  0.53249226  0.56228627  0.72766273     0.00900
C1357       C  0.50650325  0.55216313  0.73333133    -0.24400
C1358       C  0.41963744  0.62522095  0.74778807    -0.29000
C1359       C  0.42409648  0.65337935  0.74557489     0.06600
C1360       C  0.45027542  0.66282849  0.73992517    -0.27700
H1361       H  0.41716177  0.57067327  0.75088851     0.11300
H1362       H  0.45479995  0.53897010  0.74447508     0.12400
H1363       H  0.50123559  0.67615293  0.72858741     0.11500
H1364       H  0.53864422  0.64459899  0.72198435     0.10800
H1365       H  0.55572821  0.59900646  0.72082846     0.16100
H1366       H  0.50344688  0.53051521  0.73543105     0.12000
H1367       H  0.39959197  0.61765485  0.75217011     0.14900
H1368       H  0.45416096  0.68437675  0.73805017     0.14700
C1369       C  0.46296808  0.72561618  0.92551295    -0.18200
C1370       C  0.44141673  0.72482346  0.90718360    -0.20400
C1371       C  0.44508602  0.73276180  0.88015125     0.20300
C1372       C  0.47072206  0.74161035  0.87151039    -0.03300
C1373       C  0.49230494  0.74282504  0.89007858    -0.06400
C1374       C  0.48855121  0.73459076  0.91721111     0.20600
C1375       C  0.51765113  0.75229809  0.88142532     0.18700
C1376       C  0.52141598  0.76027923  0.85444587    -0.17800
C1377       C  0.50021586  0.75863675  0.83598380    -0.20100
C1378       C  0.47480266  0.74941856  0.84433956     0.20200
C1379       C  0.45330620  0.74836749  0.82607200    -0.33100
C1380       C  0.42744640  0.74032038  0.83464715     0.00900
C1381       C  0.42355143  0.73231338  0.86169767    -0.24400
C1382       C  0.51050954  0.73524076  0.93536095    -0.29000
C1383       C  0.53601539  0.74432779  0.92662116     0.06600
C1384       C  0.53903153  0.75330914  0.89971212    -0.27700
H1385       H  0.45959660  0.71925902  0.94621438     0.11300
H1386       H  0.42185656  0.71796891  0.91415855     0.12400
H1387       H  0.54084586  0.76760193  0.84756595     0.11500
H1388       H  0.50364125  0.76479168  0.81521949     0.10800
H1389       H  0.45660747  0.75459010  0.80529140     0.16100
H1390       H  0.40379005  0.72574256  0.86839447     0.12000
H1391       H  0.50784983  0.72832772  0.95599899     0.14900
H1392       H  0.55834841  0.76070982  0.89259685     0.14700
C1393       C  0.17154174  0.63455359  0.76754562    -0.18200
C1394       C  0.15379858  0.61238009  0.76732898    -0.20400
C1395       C  0.16309806  0.58634634  0.76058402     0.20300
C1396       C  0.19065259  0.58272367  0.75422851    -0.03300
C1397       C  0.20845597  0.60500782  0.75433853    -0.06400
C1398       C  0.19890681  0.63112361  0.76094537     0.20600
C1399       C  0.23584500  0.60108512  0.74771787     0.18700
C1400       C  0.24532534  0.57515984  0.74114636    -0.17800
C1401       C  0.22778988  0.55314001  0.74120082    -0.20100
C1402       C  0.20051166  0.55679792  0.74764850     0.20200
C1403       C  0.18301656  0.53480637  0.74750546    -0.33100
C1404       C  0.15546410  0.53790641  0.75372647     0.00900
C1405       C  0.14551547  0.56385485  0.76013316    -0.24400
C1406       C  0.21694247  0.65320860  0.76082454    -0.29000
C1407       C  0.24437546  0.64926728  0.75435080     0.06600
C1408       C  0.25344796  0.62308518  0.74774653    -0.27700
H1409       H  0.16383068  0.65441494  0.77279769     0.11300
H1410       H  0.13279319  0.61560847  0.77240910     0.12400
H1411       H  0.26631762  0.57191042  0.73598347     0.11500
H1412       H  0.23554881  0.53324370  0.73610296     0.10800
H1413       H  0.19117013  0.51508292  0.74237730     0.16100
H1414       H  0.12438223  0.56646938  0.76505167     0.12000
H1415       H  0.20970606  0.67328838  0.76596455     0.14900
H1416       H  0.27439170  0.61967357  0.74245384     0.14700
C1417       C  0.34467380  0.63024070  0.59351420    -0.18200
C1418       C  0.34323757  0.60814116  0.57575830    -0.20400
C1419       C  0.33251244  0.58326552  0.58442334     0.20300
C1420       C  0.32345272  0.58062372  0.61140309    -0.03300
C1421       C  0.32520866  0.60275682  0.62936963    -0.06400
C1422       C  0.33560756  0.62780261  0.62031547     0.20600
C1423       C  0.31640982  0.59982089  0.65635929     0.18700
C1424       C  0.30578492  0.57501159  0.66518019    -0.17800
C1425       C  0.30371873  0.55323471  0.64731022    -0.20100
C1426       C  0.31255256  0.55587008  0.62047233     0.20200
C1427       C  0.31079714  0.53402349  0.60265597    -0.33100
C1428       C  0.32007299  0.53615536  0.57578361     0.00900
C1429       C  0.33077592  0.56096129  0.56671306    -0.24400
C1430       C  0.33668426  0.64991117  0.63821668    -0.29000
C1431       C  0.32802528  0.64699582  0.66515501     0.06600
C1432       C  0.31812927  0.62179782  0.67405730    -0.27700
H1433       H  0.35286456  0.64926442  0.58626633     0.11300
H1434       H  0.35039334  0.61055592  0.55519006     0.12400
H1435       H  0.29890392  0.57250920  0.68584679     0.11500
H1436       H  0.29530408  0.53428321  0.65450948     0.10800
H1437       H  0.30225569  0.51516067  0.60995721     0.16100
H1438       H  0.33805599  0.56279266  0.54612006     0.12000
H1439       H  0.34458766  0.66920232  0.63132710     0.14900
H1440       H  0.31127601  0.61935653  0.69475736     0.14700
C1441       C  0.31562477  0.89943890  0.64151475    -0.18200
C1442       C  0.31649859  0.91678546  0.61909188    -0.20400
C1443       C  0.32807190  0.90810556  0.59465100     0.20300
C1444       C  0.33922596  0.88183583  0.59293070    -0.03300
C1445       C  0.33795482  0.86425373  0.61532634    -0.06400
C1446       C  0.32607276  0.87304065  0.63977015     0.20600
C1447       C  0.34786267  0.83757928  0.61293596     0.18700
C1448       C  0.35950477  0.82885989  0.58863342    -0.17800
C1449       C  0.36143083  0.84646899  0.56670602    -0.20100
C1450       C  0.35092788  0.87276994  0.56854393     0.20200
C1451       C  0.35092155  0.88969311  0.54598804    -0.33100
C1452       C  0.33884922  0.91543507  0.54709119     0.00900
C1453       C  0.32796204  0.92482120  0.57164705    -0.24400
C1454       C  0.32438337  0.85503526  0.66174407    -0.29000
C1455       C  0.33373933  0.82824204  0.65909558     0.06600
C1456       C  0.34551266  0.81980527  0.63468187    -0.27700
H1457       H  0.30636836  0.90651324  0.66007414     0.11300
H1458       H  0.30784515  0.93688185  0.62077191     0.12400
H1459       H  0.36658325  0.80823466  0.58641052     0.11500
H1460       H  0.37035929  0.83923698  0.54803804     0.10800
H1461       H  0.35973100  0.88241718  0.52726425     0.16100
H1462       H  0.31866476  0.94468124  0.57262425     0.12000
H1463       H  0.31517757  0.86157900  0.68053669     0.14900
H1464       H  0.35297740  0.79926304  0.63257738     0.14700
C1465       C  0.42808043  0.78291253  0.59274476    -0.18200
C1466       C  0.44623337  0.78483109  0.57128480    -0.20400
C1467       C  0.46901457  0.76806712  0.57035275     0.20300
C1468       C  0.47398428  0.74955152  0.59147413    -0.03300
C1469       C  0.45556513  0.74765849  0.61326668    -0.06400
C1470       C  0.43230464  0.76416466  0.61359569     0.20600
C1471       C  0.46028827  0.72923006  0.63456766     0.18700
C1472       C  0.48341660  0.71274807  0.63370606    -0.17800
C1473       C  0.50157218  0.71443437  0.61191617    -0.20100
C1474       C  0.49709727  0.73279050  0.59062351     0.20200
C1475       C  0.51489751  0.73447496  0.56828934    -0.33100
C1476       C  0.50938926  0.75249032  0.54685724     0.00900
C1477       C  0.48661367  0.76933262  0.54836164    -0.24400
C1478       C  0.41360657  0.76169889  0.63471313    -0.29000
C1479       C  0.41810882  0.74358099  0.65610934     0.06600
C1480       C  0.44170057  0.72760683  0.65615679    -0.27700
H1481       H  0.41071938  0.79611430  0.59302258     0.11300
H1482       H  0.44232774  0.79931464  0.55527666     0.12400
H1483       H  0.48738461  0.69840398  0.64981673     0.11500
H1484       H  0.51908386  0.70131297  0.61169474     0.10800
H1485       H  0.53231203  0.72125587  0.56712242     0.16100
H1486       H  0.48235360  0.78337614  0.53202439     0.12000
H1487       H  0.39569548  0.77427464  0.63479102     0.14900
H1488       H  0.44525005  0.71359313  0.67266858     0.14700
C1489       C  0.43691776  0.40185474  0.73885128    -0.18200
C1490       C  0.45901281  0.41964216  0.73939132    -0.20400
C1491       C  0.48443589  0.41064839  0.74812061     0.20300
C1492       C  0.48730639  0.38365514  0.75719734    -0.03300
C1493       C  0.46514132  0.36566250  0.75636049    -0.06400
C1494       C  0.43984661  0.37466242  0.74685028     0.20600
C1495       C  0.46859030  0.33841037  0.76423480     0.18700
C1496       C  0.49367922  0.32958204  0.77385460    -0.17800
C1497       C  0.51546113  0.34741929  0.77502416    -0.20100
C1498       C  0.51258439  0.37428301  0.76622901     0.20200
C1499       C  0.53489827  0.39150594  0.76530216    -0.33100
C1500       C  0.53275569  0.41801190  0.75491620     0.00900
C1501       C  0.50722430  0.42774072  0.74702923    -0.24400
C1502       C  0.41822941  0.35613423  0.74492474    -0.29000
C1503       C  0.42189263  0.32863271  0.75188174     0.06600
C1504       C  0.44712853  0.32019870  0.76182405    -0.27700
H1505       H  0.41766082  0.40923279  0.73161211     0.11300
H1506       H  0.45631875  0.44031481  0.73250187     0.12400
H1507       H  0.49661941  0.30870824  0.77991806     0.11500
H1508       H  0.53477235  0.33997881  0.78208463     0.10800
H1509       H  0.55425737  0.38375437  0.77189952     0.16100
H1510       H  0.50524635  0.44815946  0.73918879     0.12000
H1511       H  0.39886815  0.36292880  0.73737758     0.14900
H1512       H  0.45017973  0.29926186  0.76774775     0.14700
C1513       C  0.43762787  0.22716644  0.90859846    -0.18200
C1514       C  0.45917387  0.22947968  0.92679371    -0.20400
C1515       C  0.48332606  0.24206503  0.91887498     0.20300
C1516       C  0.48562871  0.25256330  0.89237069    -0.03300
C1517       C  0.46413711  0.24986735  0.87395916    -0.06400
C1518       C  0.43998422  0.23711790  0.88208118     0.20600
C1519       C  0.46700753  0.25965966  0.84728802     0.18700
C1520       C  0.49090714  0.27250395  0.83935259    -0.17800
C1521       C  0.51205121  0.27543526  0.85762950    -0.20100
C1522       C  0.50963337  0.26534710  0.88402595     0.20200
C1523       C  0.53123137  0.26712100  0.90188944    -0.33100
C1524       C  0.52975164  0.25564602  0.92787713     0.00900
C1525       C  0.50550607  0.24367722  0.93658874    -0.24400
C1526       C  0.41882840  0.23433196  0.86340651    -0.29000
C1527       C  0.42196384  0.24359436  0.83666221     0.06600
C1528       C  0.44603729  0.25630457  0.82885966    -0.27700
H1529       H  0.41923397  0.21730946  0.91517141     0.11300
H1530       H  0.45700318  0.22127742  0.94700744     0.12400
H1531       H  0.49332019  0.28007892  0.81894997     0.11500
H1532       H  0.53046298  0.28522548  0.85099321     0.10800
H1533       H  0.54975567  0.27661929  0.89508326     0.16100
H1534       H  0.50432107  0.23460059  0.95652106     0.12000
H1535       H  0.40021780  0.22453280  0.86947644     0.14900
H1536       H  0.44837508  0.26390891  0.80840359     0.14700
C1537       C  0.28646163  0.41720526  0.63858415    -0.18200
C1538       C  0.28901929  0.39527426  0.65619720    -0.20400
C1539       C  0.30286714  0.37189143  0.64806155     0.20300
C1540       C  0.31348737  0.37009796  0.62164085    -0.03300
C1541       C  0.31106424  0.39234276  0.60388847    -0.06400
C1542       C  0.29784861  0.41609663  0.61263526     0.20600
C1543       C  0.32273068  0.39121693  0.57783690     0.18700
C1544       C  0.33590548  0.36743593  0.56951773    -0.17800
C1545       C  0.33805497  0.34521247  0.58705349    -0.20100
C1546       C  0.32725539  0.34646885  0.61329917     0.20200
C1547       C  0.33065013  0.32494781  0.63166396    -0.33100
C1548       C  0.32115391  0.32731110  0.65840830     0.00900
C1549       C  0.30685924  0.35059936  0.66620359    -0.24400
C1550       C  0.29730879  0.43881212  0.59580024    -0.29000
C1551       C  0.31015305  0.43842431  0.57043915     0.06600
C1552       C  0.32202381  0.41428640  0.56111731    -0.27700
H1553       H  0.27617460  0.43530221  0.64550918     0.11300
H1554       H  0.28061344  0.39679567  0.67636725     0.12400
H1555       H  0.34497585  0.36619678  0.54961202     0.11500
H1556       H  0.34868787  0.32726071  0.58028944     0.10800
H1557       H  0.34151222  0.30689556  0.62551193     0.16100
H1558       H  0.29893298  0.35224368  0.68659316     0.12000
H1559       H  0.28782196  0.45727994  0.60296442     0.14900
H1560       H  0.33201486  0.41393499  0.54161252     0.14700
C1561       C  0.24135628  0.40122982  0.72944760    -0.18200
C1562       C  0.22393118  0.42333032  0.72956641    -0.20400
C1563       C  0.19715037  0.42018683  0.73805232     0.20300
C1564       C  0.18740799  0.39445811  0.74556490    -0.03300
C1565       C  0.20512353  0.37206910  0.74557353    -0.06400
C1566       C  0.23227702  0.37573249  0.73794400     0.20600
C1567       C  0.19589742  0.34626200  0.75370903     0.18700
C1568       C  0.16859686  0.34301561  0.76073070    -0.17800
C1569       C  0.15093824  0.36530114  0.76064747    -0.20100
C1570       C  0.16023544  0.39127217  0.75357463     0.20200
C1571       C  0.14319393  0.41420586  0.75487459    -0.33100
C1572       C  0.15333095  0.44011213  0.74845377     0.00900
C1573       C  0.18020356  0.44258869  0.73957649    -0.24400
C1574       C  0.25019393  0.35405413  0.73939233    -0.29000
C1575       C  0.24170980  0.32840267  0.74838220     0.06600
C1576       C  0.21429040  0.32444447  0.75504212    -0.27700
H1577       H  0.26211500  0.40421957  0.72330500     0.11300
H1578       H  0.23153740  0.44299924  0.72346099     0.12400
H1579       H  0.16098375  0.32331854  0.76669960     0.11500
H1580       H  0.13011590  0.36229728  0.76655918     0.10800
H1581       H  0.12250470  0.41202701  0.76158298     0.16100
H1582       H  0.18830942  0.46222558  0.73402933     0.12000
H1583       H  0.27100532  0.35735543  0.73353710     0.14900
H1584       H  0.20741080  0.30467248  0.76165826     0.14700
C1585       C  0.29051608  0.14332257  0.59214259    -0.18200
C1586       C  0.28769838  0.12499035  0.57080784    -0.20400
C1587       C  0.29888149  0.09892034  0.57261255     0.20300
C1588       C  0.31216602  0.09083753  0.59650592    -0.03300
C1589       C  0.31515033  0.10942769  0.61801962    -0.06400
C1590       C  0.30463124  0.13588891  0.61555583     0.20600
C1591       C  0.32946783  0.10187809  0.64152649     0.18700
C1592       C  0.34003391  0.07554483  0.64353708    -0.17800
C1593       C  0.33709061  0.05710226  0.62217211    -0.20100
C1594       C  0.32358825  0.06466701  0.59837813     0.20200
C1595       C  0.32278279  0.04722820  0.57583259    -0.33100
C1596       C  0.31142735  0.05608352  0.55131565     0.00900
C1597       C  0.29844124  0.08143693  0.55032384    -0.24400
C1598       C  0.30893898  0.15472206  0.63622242    -0.29000
C1599       C  0.32363168  0.14763380  0.65945023     0.06600
C1600       C  0.33345675  0.12100191  0.66225695    -0.27700
H1601       H  0.28220647  0.16353842  0.59006731     0.11300
H1602       H  0.27739779  0.13145698  0.55259475     0.12400
H1603       H  0.35105086  0.06937425  0.66142659     0.11500
H1604       H  0.34600683  0.03713718  0.62398318     0.10800
H1605       H  0.33286475  0.02775442  0.57670073     0.16100
H1606       H  0.28936587  0.08825335  0.53156186     0.12000
H1607       H  0.30081152  0.17503419  0.63419346     0.14900
H1608       H  0.34470010  0.11538865  0.68020737     0.14700
C1609       C  0.32700561  0.13711954  0.44126487    -0.18200
C1610       C  0.32606881  0.15472173  0.41922077    -0.20400
C1611       C  0.32991451  0.14487450  0.39289585     0.20300
C1612       C  0.33484209  0.11703163  0.38868158    -0.03300
C1613       C  0.33517951  0.09909438  0.41097099    -0.06400
C1614       C  0.33120836  0.10930444  0.43728285     0.20600
C1615       C  0.33887053  0.07098902  0.40691329     0.18700
C1616       C  0.34326019  0.06131413  0.38053456    -0.17800
C1617       C  0.34348764  0.07921490  0.35844203    -0.20100
C1618       C  0.33895054  0.10709592  0.36223484     0.20200
C1619       C  0.33816514  0.12518959  0.34013989    -0.33100
C1620       C  0.33297407  0.15303820  0.34422621     0.00900
C1621       C  0.32880676  0.16250572  0.37078212    -0.24400
C1622       C  0.33048556  0.09152520  0.45919714    -0.29000
C1623       C  0.33246207  0.06329936  0.45543312     0.06600
C1624       C  0.33733482  0.05314598  0.42920457    -0.27700
H1625       H  0.32386227  0.14519357  0.46141124     0.11300
H1626       H  0.32228292  0.17606265  0.42276688     0.12400
H1627       H  0.34627630  0.03986089  0.37694450     0.11500
H1628       H  0.34678809  0.07117364  0.33831751     0.10800
H1629       H  0.34151992  0.11758497  0.31984978     0.16100
H1630       H  0.32465664  0.18377479  0.37440225     0.12000
H1631       H  0.32729529  0.09985735  0.47923342     0.14900
H1632       H  0.33925379  0.03149158  0.42604029     0.14700
C1633       C  0.43943360  0.28226065  0.56739563    -0.18200
C1634       C  0.42116836  0.27820493  0.58846152    -0.20400
C1635       C  0.42957290  0.26583299  0.61254876     0.20300
C1636       C  0.45676735  0.25806108  0.61578399    -0.03300
C1637       C  0.47514410  0.26183060  0.59436444    -0.06400
C1638       C  0.46626802  0.27373134  0.57004187     0.20600
C1639       C  0.50208176  0.25284404  0.59691937     0.18700
C1640       C  0.51059387  0.24119138  0.62136001    -0.17800
C1641       C  0.49244929  0.23789820  0.64283715    -0.20100
C1642       C  0.46540270  0.24588840  0.64010737     0.20200
C1643       C  0.44668938  0.24145731  0.66099763    -0.33100
C1644       C  0.41936534  0.24840598  0.65748420     0.00900
C1645       C  0.41109898  0.26077116  0.63327370    -0.24400
C1646       C  0.48397913  0.27571914  0.54825801    -0.29000
C1647       C  0.51023242  0.26506388  0.54990682     0.06600
C1648       C  0.51957659  0.25456048  0.57459126    -0.27700
H1649       H  0.43240338  0.29143024  0.54876810     0.11300
H1650       H  0.40038371  0.28442005  0.58578435     0.12400
H1651       H  0.53117562  0.23423127  0.62372024     0.11500
H1652       H  0.49944053  0.22857470  0.66139243     0.10800
H1653       H  0.45323862  0.23205001  0.67968882     0.16100
H1654       H  0.39021685  0.26670374  0.63060508     0.12000
H1655       H  0.47677166  0.28437179  0.52943400     0.14900
H1656       H  0.53981648  0.24639480  0.57597390     0.14700
C1657       C  0.49225490  0.24118251  0.35645304    -0.18200
C1658       C  0.51007485  0.24364065  0.37834062    -0.20400
C1659       C  0.50049484  0.25074986  0.40412260     0.20300
C1660       C  0.47270143  0.25604222  0.40760732    -0.03300
C1661       C  0.45478677  0.25364164  0.38558357    -0.06400
C1662       C  0.46453418  0.24590262  0.35990085     0.20600
C1663       C  0.42706291  0.25875112  0.38938599     0.18700
C1664       C  0.41746993  0.26669573  0.41485689    -0.17800
C1665       C  0.43515278  0.26898654  0.43662868    -0.20100
C1666       C  0.46267040  0.26341987  0.43320535     0.20200
C1667       C  0.48016503  0.26473960  0.45516884    -0.33100
C1668       C  0.50781760  0.25870072  0.45235331     0.00900
C1669       C  0.51799897  0.25218896  0.42656971    -0.24400
C1670       C  0.44636043  0.24289929  0.33824568    -0.29000
C1671       C  0.41859495  0.24751361  0.34209359     0.06600
C1672       C  0.40928179  0.25567547  0.36774435    -0.27700
H1673       H  0.50014395  0.23538881  0.33684842     0.11300
H1674       H  0.53131999  0.23966975  0.37515885     0.12400
H1675       H  0.39624728  0.27087272  0.41800450     0.11500
H1676       H  0.42725887  0.27484654  0.45622453     0.10800
H1677       H  0.47187566  0.27021207  0.47471095     0.16100
H1678       H  0.53924108  0.24769537  0.42408973     0.12000
H1679       H  0.45377722  0.23672612  0.31856234     0.14900
H1680       H  0.38804116  0.25972918  0.37100279     0.14700
C1681       C  0.49628658  0.65346767  0.22417640    -0.18200
C1682       C  0.51802176  0.63565883  0.22222179    -0.20400
C1683       C  0.51474410  0.60815867  0.22865343     0.20300
C1684       C  0.48930524  0.59830483  0.23665372    -0.03300
C1685       C  0.46727513  0.61628147  0.23842706    -0.06400
C1686       C  0.47090590  0.64397141  0.23228564     0.20600
C1687       C  0.44184830  0.60670611  0.24698358     0.18700
C1688       C  0.43871042  0.57919387  0.25352600    -0.17800
C1689       C  0.46062769  0.56135508  0.25185859    -0.20100
C1690       C  0.48608321  0.57071443  0.24363653     0.20200
C1691       C  0.50857587  0.55328782  0.24321716    -0.33100
C1692       C  0.53419114  0.56332224  0.23615658     0.00900
C1693       C  0.53678978  0.59062770  0.22818895    -0.24400
C1694       C  0.44922388  0.66182606  0.23473580    -0.29000
C1695       C  0.42377751  0.65253675  0.24324883     0.06600
C1696       C  0.42016708  0.62488987  0.24920282    -0.27700
H1697       H  0.49943057  0.67473844  0.21974111     0.11300
H1698       H  0.53753414  0.64350134  0.21620206     0.12400
H1699       H  0.41935914  0.57152148  0.26022965     0.11500
H1700       H  0.45774903  0.54029893  0.25737421     0.10800
H1701       H  0.50633606  0.53231516  0.24934840     0.16100
H1702       H  0.55628628  0.59864302  0.22232073     0.12000
H1703       H  0.45223037  0.68305184  0.22989077     0.14900
H1704       H  0.40066228  0.61761915  0.25594069     0.14700
C1705       C  0.46177922  0.75041231  0.06956570    -0.18200
C1706       C  0.43990067  0.75365374  0.08733222    -0.20400
C1707       C  0.44048206  0.74216112  0.11335995     0.20300
C1708       C  0.46328377  0.72697940  0.12131036    -0.03300
C1709       C  0.48520933  0.72354723  0.10336566    -0.06400
C1710       C  0.48464033  0.73553868  0.07743800     0.20600
C1711       C  0.50801207  0.70865155  0.11171744     0.18700
C1712       C  0.50862254  0.69692086  0.13751838    -0.17800
C1713       C  0.48701578  0.70036477  0.15522721    -0.20100
C1714       C  0.46444679  0.71554470  0.14742439     0.20200
C1715       C  0.44320169  0.71965909  0.16552371    -0.33100
C1716       C  0.42043776  0.73488264  0.15808675     0.00900
C1717       C  0.41895072  0.74577035  0.13173839    -0.24400
C1718       C  0.50736228  0.73329270  0.06041193    -0.29000
C1719       C  0.53065315  0.71958877  0.06937100     0.06600
C1720       C  0.53032347  0.70656076  0.09462423    -0.27700
H1721       H  0.46095054  0.75983144  0.04978292     0.11300
H1722       H  0.42264561  0.76541880  0.08081466     0.12400
H1723       H  0.52602279  0.68544518  0.14418417     0.11500
H1724       H  0.48806459  0.69137692  0.17516214     0.10800
H1725       H  0.44432226  0.71074077  0.18554099     0.16100
H1726       H  0.40142131  0.75745506  0.12580716     0.12000
H1727       H  0.50744917  0.74340591  0.04094566     0.14900
H1728       H  0.54799656  0.69563163  0.10153386     0.14700
C1729       C  0.43459363  0.76764215  0.43393890    -0.18200
C1730       C  0.41701773  0.76401570  0.41224986    -0.20400
C1731       C  0.42708743  0.75793365  0.38645314     0.20300
C1732       C  0.45514507  0.75629345  0.38219135    -0.03300
C1733       C  0.47296182  0.75987451  0.40419468    -0.06400
C1734       C  0.46249792  0.76509197  0.43017701     0.20600
C1735       C  0.50108794  0.75741239  0.40039570     0.18700
C1736       C  0.51108210  0.75250995  0.37424203    -0.17800
C1737       C  0.49337734  0.74906744  0.35234570    -0.20100
C1738       C  0.46531975  0.75045368  0.35616136     0.20200
C1739       C  0.44722793  0.74582380  0.33461061    -0.33100
C1740       C  0.41912003  0.74678039  0.33897380     0.00900
C1741       C  0.40943125  0.75313351  0.36500214    -0.24400
C1742       C  0.47992698  0.76656689  0.45225531    -0.29000
C1743       C  0.50784736  0.76228684  0.44919241     0.06600
C1744       C  0.51847832  0.75876369  0.42297435    -0.27700
H1745       H  0.42631354  0.77179128  0.45380517     0.11300
H1746       H  0.39550262  0.76546931  0.41576390     0.12400
H1747       H  0.53258547  0.75077846  0.37080478     0.11500
H1748       H  0.50163632  0.74485632  0.33249403     0.10800
H1749       H  0.45499241  0.74123289  0.31463408     0.16100
H1750       H  0.38793385  0.75451455  0.36871796     0.12000
H1751       H  0.47139372  0.77000628  0.47215784     0.14900
H1752       H  0.53996064  0.75579958  0.42029094     0.14700
C1753       C  0.30987500  0.89613919  0.35760545    -0.18200
C1754       C  0.31171540  0.91430967  0.37932126    -0.20400
C1755       C  0.32645142  0.90747723  0.40259213     0.20300
C1756       C  0.33984479  0.88222246  0.40373403    -0.03300
C1757       C  0.33805761  0.86396477  0.38185596    -0.06400
C1758       C  0.32281649  0.87084897  0.35874065     0.20600
C1759       C  0.35114929  0.83860763  0.38336376     0.18700
C1760       C  0.36637580  0.83191996  0.40627318    -0.17800
C1761       C  0.36796102  0.84988256  0.42800372    -0.20100
C1762       C  0.35451141  0.87488169  0.42702362     0.20200
C1763       C  0.35485218  0.89228184  0.44929893    -0.33100
C1764       C  0.34079406  0.91706643  0.44882314     0.00900
C1765       C  0.32728636  0.92496087  0.42509521    -0.24400
C1766       C  0.32056453  0.85215748  0.33740278    -0.29000
C1767       C  0.33305988  0.82663576  0.33925222     0.06600
C1768       C  0.34849813  0.82015741  0.36213369    -0.27700
H1769       H  0.29810895  0.90176847  0.34002221     0.11300
H1770       H  0.30128135  0.93356102  0.37807069     0.12400
H1771       H  0.37670598  0.81261929  0.40755646     0.11500
H1772       H  0.37941253  0.84406392  0.44573741     0.10800
H1773       H  0.36555582  0.88613130  0.46741128     0.16100
H1774       H  0.31631218  0.94395327  0.42465432     0.12000
H1775       H  0.30868621  0.85718201  0.31969341     0.14900
H1776       H  0.35856960  0.80067565  0.36337754     0.14700
C1777       C  0.22819299  0.54824903  0.24473811    -0.18200
C1778       C  0.24563676  0.57021804  0.24195547    -0.20400
C1779       C  0.23586508  0.59675425  0.24438841     0.20300
C1780       C  0.20824840  0.60131624  0.24947997    -0.03300
C1781       C  0.19052333  0.57909101  0.25189991    -0.06400
C1782       C  0.20067448  0.55252095  0.24965303     0.20600
C1783       C  0.16273594  0.58341595  0.25649105     0.18700
C1784       C  0.15311348  0.61007203  0.25910403    -0.17800
C1785       C  0.17080937  0.63216152  0.25713026    -0.20100
C1786       C  0.19839741  0.62800664  0.25219326     0.20200
C1787       C  0.21638441  0.64995733  0.25022101    -0.33100
C1788       C  0.24406367  0.64542421  0.24555785     0.00900
C1789       C  0.25341878  0.61873136  0.24217988    -0.24400
C1790       C  0.18318302  0.53055175  0.25215827    -0.29000
C1791       C  0.15536277  0.53442786  0.25636757     0.06600
C1792       C  0.14519499  0.56100381  0.25838923    -0.27700
H1793       H  0.23620975  0.52789477  0.24291844     0.11300
H1794       H  0.26681442  0.56644787  0.23807807     0.12400
H1795       H  0.13190556  0.61384110  0.26275677     0.11500
H1796       H  0.16289485  0.65250872  0.25938613     0.10800
H1797       H  0.20892076  0.67043848  0.25286416     0.16100
H1798       H  0.27459869  0.61487957  0.23834182     0.12000
H1799       H  0.19139195  0.51026430  0.25037231     0.14900
H1800       H  0.12383948  0.56421631  0.26173675     0.14700
C1801       C  0.21532602  0.41483096  0.29473271    -0.18200
C1802       C  0.23388991  0.39380375  0.29176863    -0.20400
C1803       C  0.22839827  0.37211656  0.27430157     0.20300
C1804       C  0.20364246  0.37107560  0.26027636    -0.03300
C1805       C  0.18480316  0.39223454  0.26340935    -0.06400
C1806       C  0.19097951  0.41439603  0.28033953     0.20600
C1807       C  0.16027160  0.39170822  0.24889887     0.18700
C1808       C  0.15457941  0.36960015  0.23194409    -0.17800
C1809       C  0.17331284  0.34857597  0.22881568    -0.20100
C1810       C  0.19799589  0.34923611  0.24269650     0.20200
C1811       C  0.21725243  0.32863315  0.23920258    -0.33100
C1812       C  0.24208800  0.32995382  0.25283099     0.00900
C1813       C  0.24741678  0.35162500  0.27041258    -0.24400
C1814       C  0.17334009  0.43639355  0.28158657    -0.29000
C1815       C  0.14967325  0.43676288  0.26602995     0.06600
C1816       C  0.14259916  0.41394068  0.25057051    -0.27700
H1817       H  0.22025033  0.43170833  0.30786570     0.11300
H1818       H  0.25273450  0.39471454  0.30279751     0.12400
H1819       H  0.13586866  0.36883471  0.22067369     0.11500
H1820       H  0.16862541  0.33195020  0.21528892     0.10800
H1821       H  0.21314822  0.31184972  0.22565310     0.16100
H1822       H  0.26637043  0.35237690  0.28131040     0.12000
H1823       H  0.17866209  0.45391611  0.29372399     0.14900
H1824       H  0.12439635  0.41429174  0.23844854     0.14700
C1825       C  0.36028346  0.57542752  0.34107357    -0.18200
C1826       C  0.36106632  0.55413880  0.35969527    -0.20400
C1827       C  0.35045472  0.55751972  0.38581211     0.20300
C1828       C  0.33965241  0.58278396  0.39355793    -0.03300
C1829       C  0.33887292  0.60430536  0.37473473    -0.06400
C1830       C  0.34891077  0.60042958  0.34828822     0.20600
C1831       C  0.32747029  0.62943563  0.38216230     0.18700
C1832       C  0.31725566  0.63288023  0.40843886    -0.17800
C1833       C  0.31789513  0.61148303  0.42706151    -0.20100
C1834       C  0.32882081  0.58626586  0.41978460     0.20200
C1835       C  0.32800544  0.56415334  0.43778484    -0.33100
C1836       C  0.33736613  0.53856202  0.42956438     0.00900
C1837       C  0.34937276  0.53571069  0.40387826    -0.24400
C1838       C  0.34708407  0.62145854  0.32936917    -0.29000
C1839       C  0.33562815  0.64652928  0.33649534     0.06600
C1840       C  0.32611143  0.65048606  0.36305379    -0.27700
H1841       H  0.36821304  0.57220828  0.32089250     0.11300
H1842       H  0.36948358  0.53484535  0.35348801     0.12400
H1843       H  0.30841363  0.65202953  0.41448308     0.11500
H1844       H  0.30943619  0.61453480  0.44704097     0.10800
H1845       H  0.31857904  0.56642858  0.45744050     0.16100
H1846       H  0.35684926  0.51607247  0.39746182     0.12000
H1847       H  0.35474537  0.61832110  0.30905732     0.14900
H1848       H  0.31716472  0.66972928  0.36868679     0.14700
C1849       C  0.30443879  0.40662947  0.33680461    -0.18200
C1850       C  0.30305460  0.42839043  0.35479351    -0.20400
C1851       C  0.30758371  0.42436165  0.38249871     0.20300
C1852       C  0.31264528  0.39807011  0.39241383    -0.03300
C1853       C  0.31387846  0.37600182  0.37420506    -0.06400
C1854       C  0.31023921  0.38046445  0.34624703     0.20600
C1855       C  0.31949581  0.34968533  0.38383926     0.18700
C1856       C  0.32310145  0.34563845  0.41176182    -0.17800
C1857       C  0.32210802  0.36758582  0.42981334    -0.20100
C1858       C  0.31729360  0.39398882  0.42032460     0.20200
C1859       C  0.31805266  0.41649463  0.43793922    -0.33100
C1860       C  0.31447294  0.44291183  0.42773733     0.00900
C1861       C  0.30819512  0.44640781  0.40020184    -0.24400
C1862       C  0.31319057  0.35890192  0.32805247    -0.29000
C1863       C  0.31983592  0.33270312  0.33719281     0.06600
C1864       C  0.32217111  0.32811964  0.36530083    -0.27700
H1865       H  0.30147985  0.41036524  0.31541323     0.11300
H1866       H  0.29906825  0.44850321  0.34693648     0.12400
H1867       H  0.32727498  0.32556144  0.41959173     0.11500
H1868       H  0.32558732  0.36396283  0.45114469     0.10800
H1869       H  0.32272446  0.41358199  0.45915802     0.16100
H1870       H  0.30479328  0.46658714  0.39219792     0.12000
H1871       H  0.31074510  0.36273012  0.30660494     0.14900
H1872       H  0.32690797  0.30800222  0.37271315     0.14700
C1873       C  0.14960437  0.27617515  0.35951638    -0.18200
C1874       C  0.17152905  0.27625925  0.34185526    -0.20400
C1875       C  0.19621040  0.26509428  0.34991171     0.20300
C1876       C  0.19939634  0.25524721  0.37653872    -0.03300
C1877       C  0.17720521  0.25512915  0.39439449    -0.06400
C1878       C  0.15209354  0.26496283  0.38547341     0.20600
C1879       C  0.17985146  0.24427098  0.42072091     0.18700
C1880       C  0.20521947  0.23500018  0.42934090    -0.17800
C1881       C  0.22731801  0.23519903  0.41161784    -0.20100
C1882       C  0.22439696  0.24457170  0.38494190     0.20200
C1883       C  0.24560094  0.24251156  0.36619062    -0.33100
C1884       C  0.24178603  0.25053405  0.33909701     0.00900
C1885       C  0.21737113  0.26267247  0.33143426    -0.24400
C1886       C  0.12959305  0.26263723  0.40223750    -0.29000
C1887       C  0.13146488  0.25049841  0.42795837     0.06600
C1888       C  0.15690030  0.24209400  0.43747978    -0.27700
H1889       H  0.13047125  0.28417494  0.35259198     0.11300
H1890       H  0.16894649  0.28430623  0.32162194     0.12400
H1891       H  0.20781397  0.22695685  0.44956352     0.11500
H1892       H  0.24648983  0.22728717  0.41853580     0.10800
H1893       H  0.26460237  0.23360874  0.37238038     0.16100
H1894       H  0.21459424  0.26974362  0.31084765     0.12000
H1895       H  0.11031437  0.26982977  0.39482600     0.14900
H1896       H  0.15863907  0.23297571  0.45734684     0.14700
C1897       C  0.99203773  0.27010673  0.34060598    -0.18200
C1898       C  0.01419636  0.27039971  0.35795988    -0.20400
C1899       C  0.01230218  0.25898007  0.38385716     0.20300
C1900       C  0.98778833  0.24747963  0.39261736    -0.03300
C1901       C  0.96531093  0.24724537  0.37505510    -0.06400
C1902       C  0.96761141  0.25844910  0.34889092     0.20600
C1903       C  0.94074158  0.23549411  0.38346493     0.18700
C1904       C  0.93896921  0.22417825  0.40952653    -0.17800
C1905       C  0.96131899  0.22436575  0.42695113    -0.20100
C1906       C  0.98589087  0.23586305  0.41867233     0.20200
C1907       C  0.00875168  0.23545130  0.43562231    -0.33100
C1908       C  0.03345035  0.24621859  0.42654023     0.00900
C1909       C  0.03476205  0.25839746  0.40083674    -0.24400
C1910       C  0.94563085  0.25750053  0.33119967    -0.29000
C1911       C  0.92111317  0.24555528  0.33905379     0.06600
C1912       C  0.91863988  0.23493392  0.36547053    -0.27700
H1913       H  0.99407814  0.27880431  0.32057999     0.11300
H1914       H  0.03293614  0.27929227  0.35099508     0.12400
H1915       H  0.92034357  0.21497053  0.41636763     0.11500
H1916       H  0.95944344  0.21529738  0.44682763     0.10800
H1917       H  0.00754115  0.22606631  0.45541098     0.16100
H1918       H  0.05351734  0.26716830  0.39372467     0.12000
H1919       H  0.94767769  0.26604920  0.31109202     0.14900
H1920       H  0.89985769  0.22559522  0.37171427     0.14700
C1921       C  0.22502505  0.07832024  0.26488475    -0.18200
C1922       C  0.20318245  0.06030188  0.26350021    -0.20400
C1923       C  0.17871310  0.06836859  0.25167080     0.20300
C1924       C  0.17658908  0.09460824  0.24042496    -0.03300
C1925       C  0.19843327  0.11283865  0.24212330    -0.06400
C1926       C  0.22270613  0.10480412  0.25467719     0.20600
C1927       C  0.19567336  0.13936475  0.23183083     0.18700
C1928       C  0.17175851  0.14713013  0.21890965    -0.17800
C1929       C  0.15023782  0.12905694  0.21706779    -0.20100
C1930       C  0.15228897  0.10302944  0.22826084     0.20200
C1931       C  0.12998946  0.08580182  0.22854937    -0.33100
C1932       C  0.13125643  0.06035773  0.24126418     0.00900
C1933       C  0.15597700  0.05123317  0.25187858    -0.24400
C1934       C  0.24393106  0.12358628  0.25718084    -0.29000
C1935       C  0.24077695  0.15037501  0.24778685     0.06600
C1936       C  0.21668038  0.15789625  0.23491800    -0.27700
H1937       H  0.24354799  0.07171456  0.27443571     0.11300
H1938       H  0.20527680  0.04021755  0.27211528     0.12400
H1939       H  0.16953200  0.16735111  0.21062979     0.11500
H1940       H  0.13172818  0.13568334  0.20749979     0.10800
H1941       H  0.11114270  0.09277053  0.21987825     0.16100
H1942       H  0.15709494  0.03158497  0.26162956     0.12000
H1943       H  0.26257166  0.11757193  0.26691475     0.14900
H1944       H  0.21427814  0.17827362  0.22703874     0.14700
C1945       C  0.93672136  0.07860450  0.25301792    -0.18200
C1946       C  0.95898671  0.06109154  0.25373936    -0.20400
C1947       C  0.98535098  0.07148363  0.25464124     0.20300
C1948       C  0.98918404  0.09985393  0.25508188    -0.03300
C1949       C  0.96680167  0.11746267  0.25426188    -0.06400
C1950       C  0.94040609  0.10683209  0.25312728     0.20600
C1951       C  0.97091978  0.14573622  0.25443801     0.18700
C1952       C  0.99711597  0.15627422  0.25581885    -0.17800
C1953       C  0.01922127  0.13888133  0.25668227    -0.20100
C1954       C  0.01543105  0.11071825  0.25611793     0.20200
C1955       C  0.03758226  0.09333253  0.25618863    -0.33100
C1956       C  0.03424482  0.06500102  0.25501583     0.00900
C1957       C  0.00796227  0.05414417  0.25470653    -0.24400
C1958       C  0.91827041  0.12463446  0.25210072    -0.29000
C1959       C  0.92236171  0.15288810  0.25211298     0.06600
C1960       C  0.94883171  0.16312104  0.25324099    -0.27700
H1961       H  0.91661407  0.07005846  0.25223689     0.11300
H1962       H  0.95558127  0.03940199  0.25344156     0.12400
H1963       H  0.00051652  0.17797776  0.25611624     0.11500
H1964       H  0.03931292  0.14746448  0.25757048     0.10800
H1965       H  0.05760790  0.10210892  0.25681411     0.16100
H1966       H  0.00511578  0.03237864  0.25389741     0.12000
H1967       H  0.89798592  0.11650996  0.25127444     0.14900
H1968       H  0.95244707  0.18479768  0.25335196     0.14700
C1969       C  0.96063932  0.71319671  0.42872469    -0.18200
C1970       C  0.93861033  0.71617966  0.41110753    -0.20400
C1971       C  0.94229155  0.72621204  0.38472138     0.20300
C1972       C  0.96835194  0.73408697  0.37640115    -0.03300
C1973       C  0.99050270  0.73132438  0.39423653    -0.06400
C1974       C  0.98677856  0.72045848  0.42043186     0.20600
C1975       C  0.01648386  0.73900607  0.38558444     0.18700
C1976       C  0.02008820  0.75010336  0.35971956    -0.17800
C1977       C  0.99827887  0.75262638  0.34206044    -0.20100
C1978       C  0.97245925  0.74420851  0.35000782     0.20200
C1979       C  0.95087771  0.74522392  0.33173902    -0.33100
C1980       C  0.92491569  0.73661384  0.33937698     0.00900
C1981       C  0.92062949  0.72784837  0.36626042    -0.24400
C1982       C  0.00929824  0.71684495  0.43759096    -0.29000
C1983       C  0.03539052  0.72378688  0.42858920     0.06600
C1984       C  0.03857958  0.73513585  0.40269299    -0.27700
H1985       H  0.95725167  0.70496723  0.44876109     0.11300
H1986       H  0.91874359  0.71016479  0.41797141     0.12400
H1987       H  0.03990741  0.75638826  0.35294628     0.11500
H1988       H  0.00169973  0.76077239  0.32199425     0.10800
H1989       H  0.95440515  0.75258431  0.31137571     0.16100
H1990       H  0.90069108  0.72141082  0.37253107     0.12000
H1991       H  0.00663701  0.70817111  0.45756167     0.14900
H1992       H  0.05847054  0.74103948  0.39573868     0.14700
C1993       C  0.17246811  0.69590398  0.34223344    -0.18200
C1994       C  0.15129651  0.69238346  0.36052877    -0.20400
C1995       C  0.15358154  0.70176563  0.38721511     0.20300
C1996       C  0.17774809  0.71402569  0.39588626    -0.03300
C1997       C  0.19928790  0.71745499  0.37736539    -0.06400
C1998       C  0.19636826  0.70872413  0.35033926     0.20600
C1999       C  0.22339341  0.73018702  0.38565368     0.18700
C2000       C  0.22579550  0.73896024  0.41262400    -0.17800
C2001       C  0.20433209  0.73577176  0.43093532    -0.20100
C2002       C  0.18002661  0.72364073  0.42271636     0.20200
C2003       C  0.15757879  0.72202561  0.44032352    -0.33100
C2004       C  0.13288731  0.71120241  0.43114273     0.00900
C2005       C  0.13159952  0.70017044  0.40490144    -0.24400
C2006       C  0.21713885  0.71331728  0.33166602    -0.29000
C2007       C  0.24114014  0.72640092  0.33940369     0.06600
C2008       C  0.24434122  0.73432594  0.36668423    -0.27700
H2009       H  0.16998223  0.68894743  0.32159039     0.11300
H2010       H  0.13285657  0.68287154  0.35360655     0.12400
H2011       H  0.24412883  0.74873094  0.41945731     0.11500
H2012       H  0.20658845  0.74324306  0.45141896     0.10800
H2013       H  0.15887153  0.73053820  0.46049219     0.16100
H2014       H  0.11290583  0.69136000  0.39769657     0.12000
H2015       H  0.21456225  0.70661361  0.31093624     0.14900
H2016       H  0.26277767  0.74428893  0.37296909     0.14700
C2017       C  0.01508594  0.84890952  0.28928815    -0.18200
C2018       C  0.99396031  0.83033419  0.28702759    -0.20400
C2019       C  0.96951130  0.83808322  0.27506698     0.20300
C2020       C  0.96593129  0.86506734  0.26622736    -0.03300
C2021       C  0.98733916  0.88376742  0.26830870    -0.06400
C2022       C  0.01209482  0.87544648  0.27951349     0.20600
C2023       C  0.98427222  0.91047022  0.25837019     0.18700
C2024       C  0.95934433  0.91850558  0.24762067    -0.17800
C2025       C  0.93795591  0.90005634  0.24592720    -0.20100
C2026       C  0.94123609  0.87316816  0.25463898     0.20200
C2027       C  0.92051328  0.85408468  0.25136443    -0.33100
C2028       C  0.92439409  0.82688997  0.25901126     0.00900
C2029       C  0.94879810  0.81917812  0.27128616    -0.24400
C2030       C  0.03382592  0.89341676  0.27973127    -0.29000
C2031       C  0.03154742  0.91944984  0.26828631     0.06600
C2032       C  0.00647510  0.92823596  0.25841321    -0.27700
H2033       H  0.03399584  0.84232907  0.29807633     0.11300
H2034       H  0.99691108  0.80978137  0.29418511     0.12400
H2035       H  0.95652288  0.93893583  0.24009565     0.11500
H2036       H  0.91902892  0.90665385  0.23720375     0.10800
H2037       H  0.90164852  0.86022706  0.24215728     0.16100
H2038       H  0.95169640  0.79841768  0.27789680     0.12000
H2039       H  0.05302406  0.88662747  0.28774497     0.14900
H2040       H  0.00463601  0.94822551  0.24949494     0.14700
C2041       C  0.22505589  0.90193394  0.25086377    -0.18200
C2042       C  0.20299169  0.91981115  0.25117701    -0.20400
C2043       C  0.17645940  0.90981291  0.25070378     0.20300
C2044       C  0.17228730  0.88149023  0.24983986    -0.03300
C2045       C  0.19442786  0.86352616  0.25036686    -0.06400
C2046       C  0.22100642  0.87369233  0.25066572     0.20600
C2047       C  0.18984619  0.83531141  0.25084699     0.18700
C2048       C  0.16347713  0.82519995  0.25015796    -0.17800
C2049       C  0.14167801  0.84289514  0.24877695    -0.20100
C2050       C  0.14591082  0.87097468  0.24886499     0.20200
C2051       C  0.12401168  0.88857685  0.24891840    -0.33100
C2052       C  0.12763030  0.91676239  0.25138507     0.00900
C2053       C  0.15400829  0.92740159  0.25170747    -0.24400
C2054       C  0.24287600  0.85535843  0.25085294    -0.29000
C2055       C  0.23827031  0.82704557  0.25141562     0.06600
C2056       C  0.21160601  0.81747175  0.25179685    -0.27700
H2057       H  0.24528777  0.91020318  0.25112245     0.11300
H2058       H  0.20668658  0.94145111  0.25181931     0.12400
H2059       H  0.15971140  0.80356261  0.25051638     0.11500
H2060       H  0.12145275  0.83460642  0.24817638     0.10800
H2061       H  0.10391236  0.87998675  0.24802779     0.16100
H2062       H  0.15704656  0.94909252  0.25339383     0.12000
H2063       H  0.26332136  0.86310453  0.25060388     0.14900
H2064       H  0.20758210  0.79588302  0.25238101     0.14700
C2065       C  0.16576093  0.75338238  0.66478377    -0.18200
C2066       C  0.14428595  0.75394752  0.64664604    -0.20400
C2067       C  0.14779857  0.74496299  0.61995636     0.20300
C2068       C  0.17311179  0.73542200  0.61127735    -0.03300
C2069       C  0.19485589  0.73487313  0.62962533    -0.06400
C2070       C  0.19105186  0.74389156  0.65645582     0.20600
C2071       C  0.22036984  0.72553794  0.62111498     0.18700
C2072       C  0.22377109  0.71662516  0.59433480    -0.17800
C2073       C  0.20212529  0.71713466  0.57610272    -0.20100
C2074       C  0.17666351  0.72647852  0.58434416     0.20200
C2075       C  0.15459456  0.72669315  0.56637020    -0.33100
C2076       C  0.12910248  0.73557023  0.57523993     0.00900
C2077       C  0.12621212  0.74511920  0.60196408    -0.24400
C2078       C  0.21266394  0.74371726  0.67447759    -0.29000
C2079       C  0.23832066  0.73503078  0.66613377     0.06600
C2080       C  0.24202845  0.72569703  0.63945220    -0.27700
H2081       H  0.16261677  0.76046839  0.68529963     0.11300
H2082       H  0.12488730  0.76135518  0.65351703     0.12400
H2083       H  0.24321369  0.70936723  0.58744738     0.11500
H2084       H  0.20529659  0.71017820  0.55555894     0.10800
H2085       H  0.15709986  0.71939170  0.54584717     0.16100
H2086       H  0.10687809  0.75240426  0.60914963     0.12000
H2087       H  0.20957774  0.75105241  0.69492953     0.14900
H2088       H  0.26170705  0.71868909  0.63295727     0.14700
C2089       C  0.93599046  0.72400931  0.58769697    -0.18200
C2090       C  0.95826735  0.72371104  0.57017605    -0.20400
C2091       C  0.98342152  0.73358702  0.57874898     0.20300
C2092       C  0.98584810  0.74446256  0.60509243    -0.03300
C2093       C  0.96351127  0.74450908  0.62281934    -0.06400
C2094       C  0.93848114  0.73400164  0.61420207     0.20600
C2095       C  0.96650459  0.75435481  0.64945483     0.18700
C2096       C  0.99131274  0.76499220  0.65788417    -0.17800
C2097       C  0.01330625  0.76515163  0.64031048    -0.20100
C2098       C  0.01084314  0.75453891  0.61410278     0.20200
C2099       C  0.03328904  0.75301272  0.59717832    -0.33100
C2100       C  0.03162164  0.74101112  0.57135930     0.00900
C2101       C  0.00638503  0.73196764  0.56192288    -0.24400
C2102       C  0.91670710  0.73301808  0.63249868    -0.29000
C2103       C  0.92001834  0.74180943  0.65941656     0.06600
C2104       C  0.94487967  0.75282252  0.66749389    -0.27700
H2105       H  0.91693402  0.71590939  0.58068150     0.11300
H2106       H  0.95591469  0.71535256  0.55004957     0.12400
H2107       H  0.99383231  0.77276317  0.67822774     0.11500
H2108       H  0.03242646  0.77302306  0.64743182     0.10800
H2109       H  0.05242723  0.76053214  0.60464219     0.16100
H2110       H  0.00483154  0.72276347  0.54207931     0.12000
H2111       H  0.89756064  0.72459821  0.62609626     0.14900
H2112       H  0.94750015  0.76012566  0.68802002     0.14700
C2113       C  0.17231197  0.83093725  0.72294013    -0.18200
C2114       C  0.15034931  0.84835262  0.72165595    -0.20400
C2115       C  0.15231776  0.87467963  0.73205548     0.20300
C2116       C  0.17658662  0.88388000  0.74364502    -0.03300
C2117       C  0.19881286  0.86623170  0.74498954    -0.06400
C2118       C  0.19644769  0.83964159  0.73471096     0.20600
C2119       C  0.22318068  0.87496778  0.75685960     0.18700
C2120       C  0.22505076  0.90151325  0.76704879    -0.17800
C2121       C  0.20285533  0.91910986  0.76573484    -0.20100
C2122       C  0.17843905  0.91044718  0.75420030     0.20200
C2123       C  0.15560894  0.92744456  0.75353764    -0.33100
C2124       C  0.13119026  0.91775899  0.74271467     0.00900
C2125       C  0.13007065  0.89166854  0.73148409    -0.24400
C2126       C  0.21808494  0.82190533  0.73665593    -0.29000
C2127       C  0.24220493  0.83005700  0.74887343     0.06600
C2128       C  0.24495997  0.85678125  0.75857657    -0.27700
H2129       H  0.17033894  0.81056113  0.71497227     0.11300
H2130       H  0.13171745  0.84113985  0.71276053     0.12400
H2131       H  0.24359029  0.90858365  0.77623501     0.11500
H2132       H  0.20470841  0.93938594  0.77395690     0.10800
H2133       H  0.15654158  0.94760275  0.76221556     0.16100
H2134       H  0.11150612  0.88420485  0.72261262     0.12000
H2135       H  0.21609261  0.80154276  0.72859777     0.14900
H2136       H  0.26368778  0.86314455  0.76791935     0.14700
C2137       C  0.99619082  0.82428064  0.72682654    -0.18200
C2138       C  0.01803439  0.84211865  0.72632314    -0.20400
C2139       C  0.01475106  0.86924873  0.73424284     0.20300
C2140       C  0.98923425  0.87865894  0.74246814    -0.03300
C2141       C  0.96716068  0.86057385  0.74310112    -0.06400
C2142       C  0.97077601  0.83324517  0.73543231     0.20600
C2143       C  0.94161686  0.86973213  0.75170505     0.18700
C2144       C  0.93836470  0.89698826  0.75928044    -0.17800
C2145       C  0.96027296  0.91494236  0.75861808    -0.20100
C2146       C  0.98585174  0.90600658  0.75033605     0.20200
C2147       C  0.00814567  0.92376313  0.75008943    -0.33100
C2148       C  0.03376748  0.91430846  0.74236990     0.00900
C2149       C  0.03667908  0.88701379  0.73428266    -0.24400
C2150       C  0.94906445  0.81519645  0.73688265    -0.29000
C2151       C  0.92362227  0.82392086  0.74595642     0.06600
C2152       C  0.91993978  0.85137754  0.75294735    -0.27700
H2153       H  0.99925369  0.80338488  0.72080301     0.11300
H2154       H  0.03755696  0.83464396  0.71989449     0.12400
H2155       H  0.91889485  0.90439011  0.76592937     0.11500
H2156       H  0.95723549  0.93580301  0.76475651     0.10800
H2157       H  0.00569637  0.94463267  0.75648123     0.16100
H2158       H  0.05620352  0.87935856  0.72804648     0.12000
H2159       H  0.95205901  0.79424001  0.73097884     0.14900
H2160       H  0.90038834  0.85834492  0.75985814     0.14700
C2161       C  0.20343525  0.22877152  0.56996821    -0.18200
C2162       C  0.22547455  0.22898534  0.58775510    -0.20400
C2163       C  0.22173777  0.23432220  0.61543390     0.20300
C2164       C  0.19555546  0.23983421  0.62515486    -0.03300
C2165       C  0.17343881  0.23987244  0.60722997    -0.06400
C2166       C  0.17727324  0.23409274  0.57949018     0.20600
C2167       C  0.14740704  0.24534869  0.61722419     0.18700
C2168       C  0.14355292  0.25092614  0.64475780    -0.17800
C2169       C  0.16535794  0.25066026  0.66249192    -0.20100
C2170       C  0.19134164  0.24500077  0.65290099     0.20200
C2171       C  0.21308677  0.24425248  0.67074826    -0.33100
C2172       C  0.23930906  0.23863088  0.66147429     0.00900
C2173       C  0.24355742  0.23394307  0.63364798    -0.24400
C2174       C  0.15481388  0.23331837  0.56200974    -0.29000
C2175       C  0.12873639  0.23818754  0.57217658     0.06600
C2176       C  0.12546377  0.24468579  0.59970190    -0.27700
H2177       H  0.20684237  0.22429355  0.54878489     0.11300
H2178       H  0.24541961  0.22470207  0.57989923     0.12400
H2179       H  0.12360346  0.25517459  0.65264121     0.11500
H2180       H  0.16187417  0.25473600  0.68375110     0.10800
H2181       H  0.20944943  0.24817382  0.69202008     0.16100
H2182       H  0.26367059  0.22961210  0.62623976     0.12000
H2183       H  0.15752661  0.22831886  0.54083314     0.14900
H2184       H  0.10558316  0.24893082  0.60779062     0.14700
C2185       C  0.93847560  0.25349453  0.59084221    -0.18200
C2186       C  0.95973133  0.25130512  0.57222444    -0.20400
C2187       C  0.98467191  0.24035744  0.58010761     0.20300
C2188       C  0.98796869  0.23129623  0.60704369    -0.03300
C2189       C  0.96678068  0.23403941  0.62592455    -0.06400
C2190       C  0.94187491  0.24514069  0.61779395     0.20600
C2191       C  0.97070957  0.22599117  0.65304370     0.18700
C2192       C  0.99541002  0.21477937  0.66097368    -0.17800
C2193       C  0.01613762  0.21151716  0.64220215    -0.20100
C2194       C  0.01266951  0.21998482  0.61534451     0.20200
C2195       C  0.03396252  0.21827906  0.59701204    -0.33100
C2196       C  0.03165914  0.22871064  0.57059221     0.00900
C2197       C  0.00665191  0.23909901  0.56194599    -0.24400
C2198       C  0.92094497  0.24778981  0.63680604    -0.29000
C2199       C  0.92491551  0.24002401  0.66394040     0.06600
C2200       C  0.94992784  0.22927491  0.67184135    -0.27700
H2201       H  0.91947168  0.26205385  0.58423643     0.11300
H2202       H  0.95670948  0.25834861  0.55169487     0.12400
H2203       H  0.99877531  0.20874340  0.68174754     0.11500
H2204       H  0.03511568  0.20291808  0.64884261     0.10800
H2205       H  0.05294860  0.20980868  0.60384325     0.16100
H2206       H  0.00466350  0.24723512  0.54168247     0.12000
H2207       H  0.90170787  0.25611659  0.63055820     0.14900
H2208       H  0.95311281  0.22290363  0.69258850     0.14700
C2209       C  0.22455645  0.07696096  0.76280338    -0.18200
C2210       C  0.20218206  0.05956806  0.76203348    -0.20400
C2211       C  0.17775043  0.06814608  0.75049129     0.20300
C2212       C  0.17607557  0.09442316  0.73925398    -0.03300
C2213       C  0.19849657  0.11202145  0.74027995    -0.06400
C2214       C  0.22286134  0.10335057  0.75225370     0.20600
C2215       C  0.19628308  0.13852222  0.72981819     0.18700
C2216       C  0.17219326  0.14699722  0.71766810    -0.17800
C2217       C  0.15012417  0.12953382  0.71644363    -0.20100
C2218       C  0.15177724  0.10341417  0.72751586     0.20200
C2219       C  0.12924672  0.08646722  0.72764971    -0.33100
C2220       C  0.13026627  0.06060421  0.73962497     0.00900
C2221       C  0.15478894  0.05127461  0.75052839    -0.24400
C2222       C  0.24477735  0.12145461  0.75397464    -0.29000
C2223       C  0.24219436  0.14822618  0.74443733     0.06600
C2224       C  0.21798928  0.15635515  0.73207740    -0.27700
H2225       H  0.24306819  0.06990639  0.77204754     0.11300
H2226       H  0.20391167  0.03948569  0.77072928     0.12400
H2227       H  0.17030981  0.16726357  0.70941174     0.11500
H2228       H  0.13158716  0.13663810  0.70727372     0.10800
H2229       H  0.11061229  0.09374386  0.71878389     0.16100
H2230       H  0.15575118  0.03138047  0.75978124     0.12000
H2231       H  0.26341843  0.11503311  0.76344118     0.14900
H2232       H  0.21595782  0.17677206  0.72418436     0.14700
C2233       C  0.99277432  0.14835474  0.71602097    -0.18200
C2234       C  0.01455854  0.13053076  0.71538715    -0.20400
C2235       C  0.01210231  0.10441888  0.72630461     0.20300
C2236       C  0.98730724  0.09572323  0.73715337    -0.03300
C2237       C  0.96529283  0.11378633  0.73783804    -0.06400
C2238       C  0.96828283  0.14036609  0.72766499     0.20600
C2239       C  0.94058151  0.10552695  0.74930876     0.18700
C2240       C  0.93791645  0.07898074  0.75925316    -0.17800
C2241       C  0.95981127  0.06101929  0.75856679    -0.20100
C2242       C  0.98473876  0.06928778  0.74789277     0.20200
C2243       C  0.00733296  0.05197377  0.74835191    -0.33100
C2244       C  0.03237608  0.06113237  0.73855632     0.00900
C2245       C  0.03429650  0.08715300  0.72707881    -0.24400
C2246       C  0.94704073  0.15880383  0.73002636    -0.29000
C2247       C  0.92277026  0.15114949  0.74247371     0.06600
C2248       C  0.91930939  0.12422454  0.75130067    -0.27700
H2249       H  0.99527549  0.16859463  0.70798421     0.11300
H2250       H  0.03349185  0.13734553  0.70680264     0.12400
H2251       H  0.91903199  0.07225775  0.76800354     0.11500
H2252       H  0.95736612  0.04080687  0.76678417     0.10800
H2253       H  0.00568421  0.03191513  0.75715006     0.16100
H2254       H  0.05334843  0.09428487  0.71900065     0.12000
H2255       H  0.94954314  0.17929728  0.72248990     0.14900
H2256       H  0.90046102  0.11812658  0.76060044     0.14700
C2257       C  0.43476994  0.08862109  0.20350522    -0.18200
C2258       C  0.45345211  0.06744465  0.20171104    -0.20400
C2259       C  0.47369306  0.06456969  0.22133326     0.20300
C2260       C  0.47566808  0.08367318  0.24249898    -0.03300
C2261       C  0.45705221  0.10525989  0.24408902    -0.06400
C2262       C  0.43625319  0.10746555  0.22474250     0.20600
C2263       C  0.45905437  0.12442763  0.26522876     0.18700
C2264       C  0.47930573  0.12149857  0.28482686    -0.17800
C2265       C  0.49744369  0.09982232  0.28353263    -0.20100
C2266       C  0.49588462  0.08090062  0.26241880     0.20200
C2267       C  0.51364014  0.05880500  0.26136852    -0.33100
C2268       C  0.51100675  0.03918972  0.24103043     0.00900
C2269       C  0.49136903  0.04241120  0.22077201    -0.24400
C2270       C  0.41726496  0.12841894  0.22706212    -0.29000
C2271       C  0.41945175  0.14783783  0.24777040     0.06600
C2272       C  0.44057729  0.14598167  0.26656527    -0.27700
H2273       H  0.41907186  0.09018716  0.18835226     0.11300
H2274       H  0.45177089  0.05303405  0.18525036     0.12400
H2275       H  0.48097536  0.13586230  0.30131799     0.11500
H2276       H  0.51267430  0.09782062  0.29910740     0.10800
H2277       H  0.52847628  0.05601846  0.27722728     0.16100
H2278       H  0.48927922  0.02712249  0.20513802     0.12000
H2279       H  0.40095663  0.12991570  0.21253276     0.14900
H2280       H  0.44208574  0.16083493  0.28266075     0.14700
C2281       C  0.50896753  0.86570650  0.24677523    -0.18200
C2282       C  0.49112473  0.84365692  0.24715812    -0.20400
C2283       C  0.46331901  0.84771293  0.24353315     0.20300
C2284       C  0.45355805  0.87408826  0.23853094    -0.03300
C2285       C  0.47147636  0.89622675  0.23817835    -0.06400
C2286       C  0.49928556  0.89217190  0.24283760     0.20600
C2287       C  0.46137998  0.92252928  0.23378257     0.18700
C2288       C  0.43382398  0.92655727  0.22896851    -0.17800
C2289       C  0.41612190  0.90467205  0.22927147    -0.20100
C2290       C  0.42575214  0.87850771  0.23443708     0.20200
C2291       C  0.40785167  0.85683690  0.23607302    -0.33100
C2292       C  0.41711316  0.83063524  0.24200935     0.00900
C2293       C  0.44499508  0.82605720  0.24526063    -0.24400
C2294       C  0.51666928  0.91472328  0.24409524    -0.29000
C2295       C  0.50640001  0.94111029  0.24062700     0.06600
C2296       C  0.47881162  0.94457776  0.23488670    -0.27700
H2297       H  0.53026476  0.86211297  0.25004513     0.11300
H2298       H  0.49902260  0.82349217  0.25071172     0.12400
H2299       H  0.42589216  0.94671025  0.22540226     0.11500
H2300       H  0.39483111  0.90827160  0.22591497     0.10800
H2301       H  0.38653066  0.86055359  0.23298139     0.16100
H2302       H  0.45238121  0.80584120  0.24960527     0.12000
H2303       H  0.53791801  0.91177998  0.24824442     0.14900
H2304       H  0.47048332  0.96466214  0.23187297     0.14700
C2305       C  0.33242812  0.11155772  0.07077218    -0.18200
C2306       C  0.33509881  0.13317773  0.08902180    -0.20400
C2307       C  0.32628984  0.13053989  0.11593420     0.20300
C2308       C  0.31367836  0.10628437  0.12417708    -0.03300
C2309       C  0.31058158  0.08472063  0.10569605    -0.06400
C2310       C  0.32054215  0.08706068  0.07900254     0.20600
C2311       C  0.29797345  0.06059321  0.11417819     0.18700
C2312       C  0.28785612  0.05836786  0.14056742    -0.17800
C2313       C  0.29116681  0.07956824  0.15890614    -0.20100
C2314       C  0.30451706  0.10333685  0.15106410     0.20200
C2315       C  0.30910390  0.12402320  0.16981642    -0.33100
C2316       C  0.32225986  0.14801292  0.16210627     0.00900
C2317       C  0.33022094  0.15144620  0.13490448    -0.24400
C2318       C  0.31900685  0.06463403  0.06139128    -0.29000
C2319       C  0.30751661  0.04011964  0.07034498     0.06600
C2320       C  0.29629167  0.03872708  0.09644662    -0.27700
H2321       H  0.33993923  0.11389436  0.05031821     0.11300
H2322       H  0.34455417  0.15177233  0.08222999     0.12400
H2323       H  0.27787392  0.03998808  0.14720182     0.11500
H2324       H  0.28363022  0.07721599  0.17935161     0.10800
H2325       H  0.30220226  0.12148953  0.19048246     0.16100
H2326       H  0.34002673  0.17006674  0.12867033     0.12000
H2327       H  0.32762674  0.06592443  0.04127840     0.14900
H2328       H  0.28692445  0.02014521  0.10345541     0.14700
C2329       C  0.29847998  0.90241811  0.16118113    -0.18200
C2330       C  0.29551747  0.92428384  0.14356095    -0.20400
C2331       C  0.30247130  0.92162384  0.11618957     0.20300
C2332       C  0.31208179  0.89664885  0.10627144    -0.03300
C2333       C  0.31511741  0.87452411  0.12411627    -0.06400
C2334       C  0.30845190  0.87758470  0.15168531     0.20600
C2335       C  0.32514833  0.84953574  0.11449723     0.18700
C2336       C  0.33178829  0.84692782  0.08698298    -0.17800
C2337       C  0.32878522  0.86892183  0.06925464    -0.20100
C2338       C  0.31915264  0.89396439  0.07871503     0.20200
C2339       C  0.31722394  0.91657935  0.06140031    -0.33100
C2340       C  0.30857789  0.94181478  0.07152217     0.00900
C2341       C  0.30063019  0.94381501  0.09880983    -0.24400
C2342       C  0.31202148  0.85586896  0.16943358    -0.29000
C2343       C  0.32213260  0.83085208  0.16023870     0.06600
C2344       C  0.32850719  0.82775387  0.13261984    -0.27700
H2345       H  0.29320472  0.90500593  0.18230295     0.11300
H2346       H  0.28809338  0.94339011  0.15141737     0.12400
H2347       H  0.33950927  0.82792082  0.07920049     0.11500
H2348       H  0.33431319  0.86643068  0.04819477     0.10800
H2349       H  0.32334373  0.91476766  0.04042857     0.16100
H2350       H  0.29362177  0.96297839  0.10692362     0.12000
H2351       H  0.30670081  0.85850439  0.19054983     0.14900
H2352       H  0.33633900  0.80859060  0.12531831     0.14700
C2353       C  0.67345689  0.13167286  0.75421361    -0.18200
C2354       C  0.65543743  0.10987022  0.75292122    -0.20400
C2355       C  0.66395594  0.08456823  0.74313822     0.20300
C2356       C  0.69088852  0.08128583  0.73440669    -0.03300
C2357       C  0.70909636  0.10315909  0.73596137    -0.06400
C2358       C  0.70031609  0.12851278  0.74583366     0.20600
C2359       C  0.73622309  0.09946371  0.72817692     0.18700
C2360       C  0.74487858  0.07415476  0.71860986    -0.17800
C2361       C  0.72679252  0.05256666  0.71683181    -0.20100
C2362       C  0.69988355  0.05591027  0.72487923     0.20200
C2363       C  0.68218250  0.03393437  0.72472931    -0.33100
C2364       C  0.65577315  0.03661663  0.73470697     0.00900
C2365       C  0.64643248  0.06218404  0.74304398    -0.24400
C2366       C  0.71865129  0.15010889  0.74752112    -0.29000
C2367       C  0.74574784  0.14645893  0.73997851     0.06600
C2368       C  0.75433178  0.12104929  0.73033789    -0.27700
H2369       H  0.66645313  0.15094471  0.76203963     0.11300
H2370       H  0.63491568  0.11271419  0.75988034     0.12400
H2371       H  0.76567655  0.07101366  0.71265643     0.11500
H2372       H  0.73397282  0.03310681  0.70964265     0.10800
H2373       H  0.68939823  0.01432897  0.71792956     0.16100
H2374       H  0.62610928  0.06432069  0.75083252     0.12000
H2375       H  0.71198241  0.16954364  0.75527190     0.14900
H2376       H  0.77516918  0.11804451  0.72439332     0.14700
C2377       C  0.67340586  0.84539967  0.73409114    -0.18200
C2378       C  0.65547259  0.86728811  0.73389393    -0.20400
C2379       C  0.66297892  0.89224248  0.74526845     0.20300
C2380       C  0.68844725  0.89484630  0.75781807    -0.03300
C2381       C  0.70637210  0.87276334  0.75824962    -0.06400
C2382       C  0.69902084  0.84810957  0.74583099     0.20600
C2383       C  0.73201873  0.87569143  0.77029991     0.18700
C2384       C  0.73920082  0.90023956  0.78257021    -0.17800
C2385       C  0.72158163  0.92223755  0.78182258    -0.20100
C2386       C  0.69644487  0.91983429  0.76908619     0.20200
C2387       C  0.67956930  0.94228372  0.76663709    -0.33100
C2388       C  0.65464244  0.94013907  0.75338814     0.00900
C2389       C  0.64598452  0.91493598  0.74345796    -0.24400
C2390       C  0.71773220  0.82692297  0.74471045    -0.29000
C2391       C  0.74364635  0.83023473  0.75575819     0.06600
C2392       C  0.75041272  0.85435208  0.76909371    -0.27700
H2393       H  0.66743102  0.82651254  0.72463649     0.11300
H2394       H  0.63599166  0.86489295  0.72428646     0.12400
H2395       H  0.75873273  0.90265308  0.79208365     0.11500
H2396       H  0.72782502  0.94129410  0.79074171     0.10800
H2397       H  0.68608784  0.96170112  0.77459195     0.16100
H2398       H  0.62676165  0.91336030  0.73315201     0.12000
H2399       H  0.71242325  0.80819862  0.73452401     0.14900
H2400       H  0.77018782  0.85667800  0.77815684     0.14700
C2401       C  0.83744418  0.13089819  0.91030202    -0.18200
C2402       C  0.83746206  0.10879107  0.92817618    -0.20400
C2403       C  0.83602554  0.08211732  0.91829310     0.20300
C2404       C  0.83515906  0.07782164  0.89003807    -0.03300
C2405       C  0.83510285  0.10004867  0.87206318    -0.06400
C2406       C  0.83600509  0.12675275  0.88221054     0.20600
C2407       C  0.83370112  0.09548045  0.84391912     0.18700
C2408       C  0.83278507  0.06892881  0.83389538    -0.17800
C2409       C  0.83288642  0.04698810  0.85163545    -0.20100
C2410       C  0.83383811  0.05128359  0.87965300     0.20200
C2411       C  0.83294375  0.02934848  0.89735524    -0.33100
C2412       C  0.83305234  0.03313519  0.92559827     0.00900
C2413       C  0.83494831  0.05968121  0.93600675    -0.24400
C2414       C  0.83518354  0.14874093  0.86408026    -0.29000
C2415       C  0.83347353  0.14425690  0.83594302     0.06600
C2416       C  0.83293565  0.11747750  0.82617345    -0.27700
H2417       H  0.83828445  0.15126219  0.91847290     0.11300
H2418       H  0.83828687  0.11257942  0.94974621     0.12400
H2419       H  0.83174966  0.06513020  0.81232865     0.11500
H2420       H  0.83190106  0.02663435  0.84344073     0.10800
H2421       H  0.83161316  0.00914866  0.88883710     0.16100
H2422       H  0.83534622  0.06288175  0.95769120     0.12000
H2423       H  0.83580448  0.16926098  0.87188907     0.14900
H2424       H  0.83169803  0.11359297  0.80462444     0.14700
C2425       C  0.80465553  0.84408464  0.90727828    -0.18200
C2426       C  0.80422321  0.86605606  0.92528533    -0.20400
C2427       C  0.82057915  0.88885310  0.92069741     0.20300
C2428       C  0.83819296  0.88901326  0.89819719    -0.03300
C2429       C  0.83840123  0.86706254  0.87992048    -0.06400
C2430       C  0.82127335  0.84463365  0.88425213     0.20600
C2431       C  0.85510171  0.86804108  0.85678621     0.18700
C2432       C  0.87247810  0.89009641  0.85287362    -0.17800
C2433       C  0.87245279  0.91168575  0.87107573    -0.20100
C2434       C  0.85492479  0.91158951  0.89332276     0.20200
C2435       C  0.85310539  0.93422988  0.91007391    -0.33100
C2436       C  0.83467459  0.93494307  0.93159591     0.00900
C2437       C  0.81900527  0.91190771  0.93747562    -0.24400
C2438       C  0.82051597  0.82364296  0.86502236    -0.29000
C2439       C  0.83607704  0.82536466  0.84126484     0.06600
C2440       C  0.85361147  0.84735426  0.83753017    -0.27700
H2441       H  0.79150188  0.82694786  0.91100953     0.11300
H2442       H  0.79071471  0.86543582  0.94250545     0.12400
H2443       H  0.88565645  0.89093218  0.83540120     0.11500
H2444       H  0.88558929  0.92883362  0.86731612     0.10800
H2445       H  0.86552287  0.95182546  0.90580484     0.16100
H2446       H  0.80478050  0.91244640  0.95412524     0.12000
H2447       H  0.80704329  0.80658068  0.86794315     0.14900
H2448       H  0.86598183  0.84842989  0.81945487     0.14700
C2449       C  0.34259579  0.32534022  0.08183050    -0.18200
C2450       C  0.33999500  0.34275615  0.05974373    -0.20400
C2451       C  0.33280793  0.36998847  0.06366660     0.20300
C2452       C  0.32871106  0.37998870  0.09004288    -0.03300
C2453       C  0.33117121  0.36233800  0.11235670    -0.06400
C2454       C  0.33788309  0.33487253  0.10813163     0.20600
C2455       C  0.32637038  0.37202230  0.13878145     0.18700
C2456       C  0.31973509  0.39941948  0.14264600    -0.17800
C2457       C  0.31746347  0.41698893  0.12049928    -0.20100
C2458       C  0.32170082  0.40746305  0.09407803     0.20200
C2459       C  0.31871209  0.42476008  0.07161466    -0.33100
C2460       C  0.32218969  0.41468180  0.04523831     0.00900
C2461       C  0.32937856  0.38727729  0.04157875    -0.24400
C2462       C  0.33913094  0.31720256  0.13017178    -0.29000
C2463       C  0.33350658  0.32639311  0.15653949     0.06600
C2464       C  0.32765717  0.35400323  0.16075417    -0.27700
H2465       H  0.34787150  0.30431225  0.07830707     0.11300
H2466       H  0.34334364  0.33485962  0.03956216     0.12400
H2467       H  0.31601542  0.40720989  0.16279666     0.11500
H2468       H  0.31208404  0.43797848  0.12402261     0.10800
H2469       H  0.31317134  0.44580020  0.07460771     0.16100
H2470       H  0.33248286  0.37926807  0.02139003     0.12000
H2471       H  0.34403622  0.29608006  0.12661690     0.14900
H2472       H  0.32340256  0.36134169  0.18097732     0.14700
C2473       C  0.33061320  0.40132906  0.85268489    -0.18200
C2474       C  0.32879409  0.41930291  0.87464084    -0.20400
C2475       C  0.31976561  0.41021449  0.90002616     0.20300
C2476       C  0.31214706  0.38275413  0.90303031    -0.03300
C2477       C  0.31391956  0.36469690  0.88095045    -0.06400
C2478       C  0.32343229  0.37392272  0.85568234     0.20600
C2479       C  0.30668739  0.33723353  0.88439489     0.18700
C2480       C  0.29749964  0.32805799  0.90956967    -0.17800
C2481       C  0.29587821  0.34583328  0.93139073    -0.20100
C2482       C  0.30324838  0.37309363  0.92829409     0.20200
C2483       C  0.30240774  0.39059269  0.95035388    -0.33100
C2484       C  0.31079576  0.41777589  0.94811613     0.00900
C2485       C  0.31891638  0.42772396  0.92265069    -0.24400
C2486       C  0.32624576  0.35538863  0.83419059    -0.29000
C2487       C  0.31999991  0.32774980  0.83794144     0.06600
C2488       C  0.30950449  0.31912311  0.86289748    -0.27700
H2489       H  0.33796667  0.40879962  0.83343602     0.11300
H2490       H  0.33477350  0.44023973  0.87184214     0.12400
H2491       H  0.29204224  0.30701316  0.91251443     0.11500
H2492       H  0.28912781  0.33817923  0.95079650     0.10800
H2493       H  0.29578817  0.38260433  0.96968172     0.16100
H2494       H  0.32553803  0.44856873  0.92068880     0.12000
H2495       H  0.33410694  0.36228046  0.81491966     0.14900
H2496       H  0.30400161  0.29805226  0.86585021     0.14700
C2497       C  0.17381786  0.21508703  0.14267680    -0.18200
C2498       C  0.15563336  0.21532830  0.12094529    -0.20400
C2499       C  0.16146770  0.23003582  0.09729592     0.20300
C2500       C  0.18565298  0.24511781  0.09589443    -0.03300
C2501       C  0.20408310  0.24466411  0.11765382    -0.06400
C2502       C  0.19825860  0.22940005  0.14109082     0.20600
C2503       C  0.22865644  0.25898686  0.11562629     0.18700
C2504       C  0.23411064  0.27453593  0.09254340    -0.17800
C2505       C  0.21581404  0.27513382  0.07112547    -0.20100
C2506       C  0.19185436  0.26007968  0.07240785     0.20200
C2507       C  0.17451274  0.25904234  0.05016596    -0.33100
C2508       C  0.15099467  0.24311423  0.05071704     0.00900
C2509       C  0.14410772  0.22926943  0.07469123    -0.24400
C2510       C  0.21724939  0.22832259  0.16218745    -0.29000
C2511       C  0.24221694  0.24167609  0.15963994     0.06600
C2512       C  0.24760836  0.25716590  0.13646582    -0.27700
H2513       H  0.16897831  0.20330751  0.16053741     0.11300
H2514       H  0.13717806  0.20368281  0.12248880     0.12400
H2515       H  0.25274783  0.28588180  0.09085986     0.11500
H2516       H  0.22069900  0.28689586  0.05327166     0.10800
H2517       H  0.17978564  0.27014193  0.03198227     0.16100
H2518       H  0.12600472  0.21697965  0.07531785     0.12000
H2519       H  0.21299776  0.21646754  0.18016505     0.14900
H2520       H  0.26660425  0.26792892  0.13471557     0.14700
C2521       C  0.24008939  0.26172436  0.91241011    -0.18200
C2522       C  0.22205013  0.26312875  0.93402245    -0.20400
C2523       C  0.19582997  0.25281040  0.93144681     0.20300
C2524       C  0.18739080  0.24160175  0.90663900    -0.03300
C2525       C  0.20564400  0.24041044  0.88460666    -0.06400
C2526       C  0.23217858  0.25022188  0.88774941     0.20600
C2527       C  0.19751247  0.22918840  0.85964641     0.18700
C2528       C  0.17097417  0.21945258  0.85700801    -0.17800
C2529       C  0.15293047  0.22040839  0.87896706    -0.20100
C2530       C  0.16096616  0.23123669  0.90403112     0.20200
C2531       C  0.14345283  0.23131283  0.92670225    -0.33100
C2532       C  0.15225891  0.24154535  0.95189679     0.00900
C2533       C  0.17827716  0.25291407  0.95360213    -0.24400
C2534       C  0.25051081  0.24836264  0.86630530    -0.29000
C2535       C  0.24286762  0.23724829  0.84127796     0.06600
C2536       C  0.21612982  0.22786470  0.83797843    -0.27700
H2537       H  0.26036000  0.26939895  0.91508641     0.11300
H2538       H  0.22878365  0.27188688  0.95295066     0.12400
H2539       H  0.16422943  0.21083939  0.83802083     0.11500
H2540       H  0.13274197  0.21243564  0.87640056     0.10800
H2541       H  0.12346161  0.22263012  0.92497246     0.16100
H2542       H  0.18533031  0.26134467  0.97257234     0.12000
H2543       H  0.27081068  0.25603027  0.86905672     0.14900
H2544       H  0.20995240  0.21927305  0.81877711     0.14700
C2545       C  0.80179291  0.58083502  0.14359123    -0.18200
C2546       C  0.79945356  0.56324583  0.12137661    -0.20400
C2547       C  0.81034595  0.57035676  0.09609617     0.20300
C2548       C  0.82411651  0.59529703  0.09342460    -0.03300
C2549       C  0.82648612  0.61299203  0.11578085    -0.06400
C2550       C  0.81503325  0.60590553  0.14095013     0.20600
C2551       C  0.83987145  0.63806311  0.11272090     0.18700
C2552       C  0.85141767  0.64493573  0.08777129    -0.17800
C2553       C  0.84901195  0.62750678  0.06568750    -0.20100
C2554       C  0.83513021  0.60287430  0.06824009     0.20200
C2555       C  0.83176469  0.58596310  0.04583448    -0.33100
C2556       C  0.81770433  0.56130700  0.04798539     0.00900
C2557       C  0.80739369  0.55332155  0.07333022    -0.24400
C2558       C  0.81650746  0.62433271  0.16271038    -0.29000
C2559       C  0.82887510  0.64987217  0.15929359     0.06600
C2560       C  0.84096163  0.65621807  0.13440196    -0.27700
H2561       H  0.79292698  0.57497555  0.16275546     0.11300
H2562       H  0.78885881  0.54420392  0.12390273     0.12400
H2563       H  0.86192574  0.66402941  0.08520615     0.11500
H2564       H  0.85772391  0.63346829  0.04648188     0.10800
H2565       H  0.84009219  0.59213460  0.02650245     0.16100
H2566       H  0.79646617  0.53437676  0.07512143     0.12000
H2567       H  0.80728486  0.61920996  0.18192950     0.14900
H2568       H  0.85104234  0.67555572  0.13178080     0.14700
C2569       C  0.83597305  0.57584366  0.85647471    -0.18200
C2570       C  0.83394043  0.55846138  0.87885534    -0.20400
C2571       C  0.82121539  0.56712444  0.90274995     0.20300
C2572       C  0.81015551  0.59348500  0.90390222    -0.03300
C2573       C  0.81254570  0.61109845  0.88153267    -0.06400
C2574       C  0.82559280  0.60231841  0.85767701     0.20600
C2575       C  0.80248227  0.63777165  0.88336569     0.18700
C2576       C  0.78933176  0.64638184  0.90695535    -0.17800
C2577       C  0.78667896  0.62887581  0.92893114    -0.20100
C2578       C  0.79738864  0.60261452  0.92773200     0.20200
C2579       C  0.79637628  0.58575377  0.95037153    -0.33100
C2580       C  0.80821253  0.55992232  0.94987735     0.00900
C2581       C  0.82004725  0.55034796  0.92580161    -0.24400
C2582       C  0.82859291  0.62043225  0.83582840    -0.29000
C2583       C  0.81941548  0.64734707  0.83807885     0.06600
C2584       C  0.80615800  0.65564832  0.86181367    -0.27700
H2585       H  0.84610579  0.56873943  0.83839136     0.11300
H2586       H  0.84259806  0.53833871  0.87757473     0.12400
H2587       H  0.78140464  0.66679250  0.90853906     0.11500
H2588       H  0.77677500  0.63608800  0.94710335     0.10800
H2589       H  0.78694387  0.59307467  0.96877587     0.16100
H2590       H  0.82929072  0.53044002  0.92538613     0.12000
H2591       H  0.83882179  0.61393117  0.81756132     0.14900
H2592       H  0.79862499  0.67621904  0.86355311     0.14700
C2593       C  0.91731230  0.72534552  0.08305002    -0.18200
C2594       C  0.93476629  0.72391631  0.06102233    -0.20400
C2595       C  0.96262619  0.72677462  0.06474072     0.20300
C2596       C  0.97316359  0.73116018  0.09081397    -0.03300
C2597       C  0.95542966  0.73277823  0.11315603    -0.06400
C2598       C  0.92743124  0.72985837  0.10911938     0.20600
C2599       C  0.96561472  0.73740186  0.13939522     0.18700
C2600       C  0.99361802  0.74018852  0.14294091    -0.17800
C2601       C  0.01126098  0.73850858  0.12072510    -0.20100
C2602       C  0.00126954  0.73404375  0.09447945     0.20200
C2603       C  0.01865720  0.73256913  0.07180730    -0.33100
C2604       C  0.00803085  0.72833413  0.04564219     0.00900
C2605       C  0.97995816  0.72538081  0.04261833    -0.24400
C2606       C  0.90984210  0.73165005  0.13110424    -0.29000
C2607       C  0.91949740  0.73656414  0.15742649     0.06600
C2608       C  0.94757147  0.73925488  0.16145022    -0.27700
H2609       H  0.89584945  0.72305343  0.07966628     0.11300
H2610       H  0.92645155  0.72057359  0.04102933     0.12400
H2611       H  0.00189000  0.74373580  0.16290761     0.11500
H2612       H  0.03272281  0.74079765  0.12407638     0.10800
H2613       H  0.04021329  0.73490734  0.07449366     0.16100
H2614       H  0.97122509  0.72209224  0.02280230     0.12000
H2615       H  0.88842230  0.72915266  0.12753784     0.14900
H2616       H  0.95534931  0.74291315  0.18160065     0.14700
C2617       C  0.99300567  0.73141581  0.85065905    -0.18200
C2618       C  0.01114892  0.73091496  0.87250729    -0.20400
C2619       C  0.00218879  0.72463877  0.89877880     0.20300
C2620       C  0.97473768  0.71789385  0.90263386    -0.03300
C2621       C  0.95640387  0.71876511  0.88073003    -0.06400
C2622       C  0.96545905  0.72595172  0.85465793     0.20600
C2623       C  0.92882206  0.71323625  0.88518333     0.18700
C2624       C  0.91992751  0.70580107  0.91103579    -0.17800
C2625       C  0.93805299  0.70459978  0.93254131    -0.20100
C2626       C  0.96531970  0.71104949  0.92859481     0.20200
C2627       C  0.98298031  0.71162993  0.95052374    -0.33100
C2628       C  0.01005175  0.71993450  0.94762090     0.00900
C2629       C  0.01978395  0.72576515  0.92138418    -0.24400
C2630       C  0.94665459  0.72838489  0.83338670    -0.29000
C2631       C  0.91886853  0.72423799  0.83813776     0.06600
C2632       C  0.91037646  0.71597936  0.86398370    -0.27700
H2633       H  0.00042162  0.73674917  0.83073721     0.11300
H2634       H  0.03211657  0.73589394  0.86891474     0.12400
H2635       H  0.89884557  0.70137033  0.91473791     0.11500
H2636       H  0.93059503  0.69926355  0.95245038     0.10800
H2637       H  0.97509243  0.70636991  0.97028521     0.16100
H2638       H  0.04056980  0.73196035  0.91868482     0.12000
H2639       H  0.95352529  0.73443960  0.81346659     0.14900
H2640       H  0.88920387  0.71206812  0.86782204     0.14700
C2641       C  0.49328546  0.13325152  0.75920490    -0.18200
C2642       C  0.51132888  0.11140788  0.75874527    -0.20400
C2643       C  0.50358081  0.08638955  0.74769487     0.20300
C2644       C  0.47746471  0.08351342  0.73663310    -0.03300
C2645       C  0.45921543  0.10545168  0.73729894    -0.06400
C2646       C  0.46710994  0.13043717  0.74875265     0.20600
C2647       C  0.43278394  0.10207190  0.72731586     0.18700
C2648       C  0.42501514  0.07715619  0.71607040    -0.17800
C2649       C  0.44311189  0.05549919  0.71527036    -0.20100
C2650       C  0.46918702  0.05840239  0.72583881     0.20200
C2651       C  0.48667769  0.03626001  0.72687054    -0.33100
C2652       C  0.51227404  0.03860671  0.73886033     0.00900
C2653       C  0.52099157  0.06389445  0.74853329    -0.24400
C2654       C  0.44844298  0.15186174  0.75025129    -0.29000
C2655       C  0.42180653  0.14830194  0.74109216     0.06600
C2656       C  0.41432224  0.12341636  0.72935575    -0.27700
H2657       H  0.49965681  0.15222777  0.76819170     0.11300
H2658       H  0.53121305  0.11396203  0.76743862     0.12400
H2659       H  0.40479237  0.07428430  0.70829327     0.11500
H2660       H  0.43651061  0.03628861  0.70694525     0.10800
H2661       H  0.47996237  0.01681880  0.71913741     0.16100
H2662       H  0.54064324  0.06569248  0.75794833     0.12000
H2663       H  0.45435693  0.17093959  0.75936722     0.14900
H2664       H  0.39395630  0.12056003  0.72191250     0.14700
C2665       C  0.44031091  0.92688383  0.77392010    -0.18200
C2666       C  0.42215591  0.90533840  0.77324704    -0.20400
C2667       C  0.43036031  0.87991894  0.76362831     0.20300
C2668       C  0.45717101  0.87597941  0.75489321    -0.03300
C2669       C  0.47556804  0.89772270  0.75571241    -0.06400
C2670       C  0.46694941  0.92323563  0.76517116     0.20600
C2671       C  0.50235305  0.89411118  0.74661433     0.18700
C2672       C  0.51046937  0.86857882  0.73705305    -0.17800
C2673       C  0.49217709  0.84694278  0.73626429    -0.20100
C2674       C  0.46544960  0.85048483  0.74497336     0.20200
C2675       C  0.44671673  0.82917981  0.74354906    -0.33100
C2676       C  0.41982570  0.83322753  0.75173049     0.00900
C2677       C  0.41200590  0.85853866  0.76216450    -0.24400
C2678       C  0.48486282  0.94495347  0.76509300    -0.29000
C2679       C  0.51124239  0.94193860  0.75518099     0.06600
C2680       C  0.52018858  0.91631040  0.74654366    -0.27700
H2681       H  0.43345631  0.94647587  0.78107282     0.11300
H2682       H  0.40161334  0.90863437  0.77996328     0.12400
H2683       H  0.53088851  0.86540881  0.72993240     0.11500
H2684       H  0.49886778  0.82749803  0.72859219     0.10800
H2685       H  0.45292151  0.80967045  0.73560626     0.16100
H2686       H  0.39148554  0.86172190  0.76905109     0.12000
H2687       H  0.47792328  0.96459522  0.77208174     0.14900
H2688       H  0.54046689  0.91395229  0.73870172     0.14700
C2689       C  0.35305184  0.07406321  0.83776063    -0.18200
C2690       C  0.35259756  0.05214364  0.85548168    -0.20400
C2691       C  0.34527045  0.05590174  0.88261274     0.20300
C2692       C  0.33856405  0.08192691  0.89219871    -0.03300
C2693       C  0.33913689  0.10413637  0.87428907    -0.06400
C2694       C  0.34626617  0.10003032  0.84696537     0.20600
C2695       C  0.33212877  0.13026537  0.88353986     0.18700
C2696       C  0.32483670  0.13389492  0.91076748    -0.17800
C2697       C  0.32417135  0.11176435  0.92856736    -0.20100
C2698       C  0.33085573  0.08563212  0.91946605     0.20200
C2699       C  0.32956839  0.06305856  0.93689476    -0.33100
C2700       C  0.33596258  0.03697727  0.92721399     0.00900
C2701       C  0.34411959  0.03384364  0.90010817    -0.24400
C2702       C  0.34599797  0.12180517  0.82905630    -0.29000
C2703       C  0.33843754  0.14781383  0.83778370     0.06600
C2704       C  0.33197754  0.15207139  0.86521785    -0.27700
H2705       H  0.35848356  0.07066553  0.81679318     0.11300
H2706       H  0.35771238  0.03218203  0.84789633     0.12400
H2707       H  0.31935985  0.15380016  0.91823035     0.11500
H2708       H  0.31821010  0.11505522  0.94939739     0.10800
H2709       H  0.32325671  0.06573026  0.95771557     0.16100
H2710       H  0.34926293  0.01399982  0.89223184     0.12000
H2711       H  0.35136147  0.11830022  0.80807530     0.14900
H2712       H  0.32610978  0.17207570  0.87212320     0.14700
C2713       C  0.30116092  0.85188547  0.90524461    -0.18200
C2714       C  0.30277202  0.87313855  0.92397449    -0.20400
C2715       C  0.32103835  0.89451784  0.91999343     0.20300
C2716       C  0.33813751  0.89427855  0.89713884    -0.03300
C2717       C  0.33639129  0.87303351  0.87821697    -0.06400
C2718       C  0.31778512  0.85171591  0.88222271     0.20600
C2719       C  0.35305389  0.87336992  0.85505587     0.18700
C2720       C  0.37181858  0.89426393  0.85138307    -0.17800
C2721       C  0.37357575  0.91526994  0.87014306    -0.20100
C2722       C  0.35650545  0.91568193  0.89274745     0.20200
C2723       C  0.35667101  0.93775860  0.91035886    -0.33100
C2724       C  0.33870443  0.93884021  0.93227196     0.00900
C2725       C  0.32170990  0.91673436  0.93772002    -0.24400
C2726       C  0.31622745  0.83074530  0.86304303    -0.29000
C2727       C  0.33255176  0.83151768  0.83977277     0.06600
C2728       C  0.35070985  0.85283735  0.83586443    -0.27700
H2729       H  0.28675519  0.83571897  0.90863631     0.11300
H2730       H  0.28947820  0.87304753  0.94137785     0.12400
H2731       H  0.38491640  0.89451888  0.83382434     0.11500
H2732       H  0.38789853  0.93149147  0.86667683     0.10800
H2733       H  0.36999070  0.95473616  0.90633763     0.16100
H2734       H  0.30779432  0.91765310  0.95461555     0.12000
H2735       H  0.30218851  0.81413754  0.86593573     0.14900
H2736       H  0.36348110  0.85307829  0.81803525     0.14700
C2737       C  0.65085963  0.11037827  0.26837635    -0.18200
C2738       C  0.66888313  0.13232956  0.26756653    -0.20400
C2739       C  0.69633822  0.12820688  0.26178028     0.20300
C2740       C  0.70566729  0.10163202  0.25693520    -0.03300
C2741       C  0.68757037  0.07952278  0.25796934    -0.06400
C2742       C  0.65995254  0.08382241  0.26361995     0.20600
C2743       C  0.69726452  0.05305437  0.25363410     0.18700
C2744       C  0.72464940  0.04875203  0.24802819    -0.17800
C2745       C  0.74245172  0.07058398  0.24676789    -0.20100
C2746       C  0.73318103  0.09703497  0.25129082     0.20200
C2747       C  0.75110846  0.11886997  0.25040535    -0.33100
C2748       C  0.74220327  0.14553035  0.25515029     0.00900
C2749       C  0.71467077  0.15005487  0.26084891    -0.24400
C2750       C  0.64216554  0.06145186  0.26482050    -0.29000
C2751       C  0.65198982  0.03492653  0.26099132     0.06600
C2752       C  0.67956640  0.03116429  0.25523045    -0.27700
H2753       H  0.62982393  0.11416823  0.27290662     0.11300
H2754       H  0.66132892  0.15255967  0.27147850     0.12400
H2755       H  0.73232970  0.02845706  0.24469544     0.11500
H2756       H  0.76352874  0.06675561  0.24242717     0.10800
H2757       H  0.77214354  0.11497895  0.24587063     0.16100
H2758       H  0.70755136  0.17046103  0.26471916     0.12000
H2759       H  0.62101391  0.06459674  0.26933639     0.14900
H2760       H  0.68750925  0.01096141  0.25189939     0.14700
C2761       C  0.72252383  0.92421407  0.28229335    -0.18200
C2762       C  0.74165784  0.90398345  0.27799451    -0.20400
C2763       C  0.73380809  0.87864735  0.26789801     0.20300
C2764       C  0.70642441  0.87371704  0.26177775    -0.03300
C2765       C  0.68717938  0.89452460  0.26527542    -0.06400
C2766       C  0.69537776  0.91967439  0.27584070     0.20600
C2767       C  0.65992026  0.89032326  0.25797430     0.18700
C2768       C  0.65209913  0.86472248  0.24827670    -0.17800
C2769       C  0.67105575  0.84371864  0.24571554    -0.20100
C2770       C  0.69832815  0.84809371  0.25216069     0.20200
C2771       C  0.71765284  0.82737576  0.24928073    -0.33100
C2772       C  0.74506559  0.83222101  0.25531242     0.00900
C2773       C  0.75289984  0.85809972  0.26422955    -0.24400
C2774       C  0.67659030  0.94037205  0.27890592    -0.29000
C2775       C  0.64990011  0.93747208  0.26964518     0.06600
C2776       C  0.64136970  0.91204858  0.25980561    -0.27700
H2777       H  0.72904882  0.94362019  0.29021727     0.11300
H2778       H  0.76257581  0.90807995  0.28280206     0.12400
H2779       H  0.63132853  0.86093015  0.24266933     0.11500
H2780       H  0.66443702  0.82412821  0.23836315     0.10800
H2781       H  0.71136431  0.80754888  0.24225380     0.16100
H2782       H  0.77382899  0.86209763  0.26913242     0.12000
H2783       H  0.68338639  0.95954081  0.28719781     0.14900
H2784       H  0.62086544  0.90949250  0.25268769     0.14700
C2785       C  0.78827407  0.07893902  0.15659613    -0.18200
C2786       C  0.78642033  0.05740468  0.13828816    -0.20400
C2787       C  0.79922540  0.05889646  0.11300528     0.20300
C2788       C  0.81299551  0.08278136  0.10555218    -0.03300
C2789       C  0.81505194  0.10446381  0.12414388    -0.06400
C2790       C  0.80308839  0.10225668  0.14998124     0.20600
C2791       C  0.82994080  0.12786398  0.11727967     0.18700
C2792       C  0.84201174  0.12963670  0.09162125    -0.17800
C2793       C  0.83991524  0.10817458  0.07317057    -0.20100
C2794       C  0.82580782  0.08449010  0.08006541     0.20200
C2795       C  0.82554403  0.06196433  0.06259971    -0.33100
C2796       C  0.81348339  0.03753664  0.07080586     0.00900
C2797       C  0.79969180  0.03642979  0.09566220    -0.24400
C2798       C  0.80672319  0.12305500  0.16901369    -0.29000
C2799       C  0.82191323  0.14624969  0.16255009     0.06600
C2800       C  0.83303926  0.14873955  0.13643133    -0.27700
H2801       H  0.77871921  0.07705107  0.17622817     0.11300
H2802       H  0.77557038  0.03927900  0.14420037     0.12400
H2803       H  0.85353522  0.14743113  0.08600489     0.11500
H2804       H  0.84992926  0.10982972  0.05375424     0.10800
H2805       H  0.83631727  0.06282214  0.04352988     0.16100
H2806       H  0.79019209  0.01765552  0.10196588     0.12000
H2807       H  0.79767925  0.12122018  0.18891002     0.14900
H2808       H  0.84469768  0.16660429  0.13127421     0.14700
C2809       C  0.84806717  0.92636079  0.14529502    -0.18200
C2810       C  0.84812442  0.90451797  0.16308473    -0.20400
C2811       C  0.84289625  0.87831725  0.15356217     0.20300
C2812       C  0.83819887  0.87380266  0.12579129    -0.03300
C2813       C  0.83802526  0.89592968  0.10779927    -0.06400
C2814       C  0.84260939  0.92228978  0.11779831     0.20600
C2815       C  0.83252337  0.89184623  0.08006860     0.18700
C2816       C  0.82815324  0.86536078  0.07052346    -0.17800
C2817       C  0.82843558  0.84329928  0.08843406    -0.20100
C2818       C  0.83308275  0.84736619  0.11617759     0.20200
C2819       C  0.83230485  0.82567141  0.13460229    -0.33100
C2820       C  0.83639544  0.83033137  0.16244719     0.00900
C2821       C  0.84194344  0.85668879  0.17156327    -0.24400
C2822       C  0.84063571  0.94439100  0.10043721    -0.29000
C2823       C  0.83356985  0.94089020  0.07317409     0.06600
C2824       C  0.83050010  0.91445562  0.06275924    -0.27700
H2825       H  0.85171176  0.94653822  0.15315039     0.11300
H2826       H  0.85189604  0.90817008  0.18436794     0.12400
H2827       H  0.82403522  0.86176273  0.04930414     0.11500
H2828       H  0.82460971  0.82312441  0.08065595     0.10800
H2829       H  0.82810051  0.80537151  0.12734193     0.16100
H2830       H  0.84542208  0.86057782  0.19286473     0.12000
H2831       H  0.84376507  0.96458143  0.10851802     0.14900
H2832       H  0.82536718  0.91156931  0.04164640     0.14700
C2833       C  0.78877017  0.32857253  0.09014977    -0.18200
C2834       C  0.78508406  0.34688822  0.06898234    -0.20400
C2835       C  0.79700172  0.37265455  0.07003223     0.20300
C2836       C  0.81234459  0.38036063  0.09274667    -0.03300
C2837       C  0.81602047  0.36188330  0.11414987    -0.06400
C2838       C  0.80435497  0.33582480  0.11266216     0.20600
C2839       C  0.83141893  0.36942560  0.13694769     0.18700
C2840       C  0.84296862  0.39537946  0.13807136    -0.17800
C2841       C  0.83943672  0.41369051  0.11672529    -0.20100
C2842       C  0.82426392  0.40636734  0.09391475     0.20200
C2843       C  0.82133932  0.42425035  0.07196151    -0.33100
C2844       C  0.80693118  0.41613546  0.04890320     0.00900
C2845       C  0.79434539  0.39058291  0.04841490    -0.24400
C2846       C  0.80836337  0.31747243  0.13376509    -0.29000
C2847       C  0.82344717  0.32489168  0.15663492     0.06600
C2848       C  0.83488032  0.35089698  0.15820911    -0.27700
H2849       H  0.77955512  0.30869477  0.08885957     0.11300
H2850       H  0.77315737  0.34079994  0.05165350     0.12400
H2851       H  0.85482693  0.40148798  0.15543079     0.11500
H2852       H  0.84871902  0.43353111  0.11798677     0.10800
H2853       H  0.83118777  0.44386497  0.07231503     0.16100
H2854       H  0.78293622  0.38431283  0.03077727     0.12000
H2855       H  0.79924037  0.29751621  0.13264783     0.14900
H2856       H  0.84661181  0.35656742  0.17582103     0.14700
C2857       C  0.79156149  0.32577353  0.91338172    -0.18200
C2858       C  0.78779555  0.34412172  0.93452013    -0.20400
C2859       C  0.79581445  0.37124287  0.93162412     0.20300
C2860       C  0.80701803  0.38028008  0.90704943    -0.03300
C2861       C  0.81023815  0.36188747  0.88548412    -0.06400
C2862       C  0.80299317  0.33441285  0.88892018     0.20600
C2863       C  0.82136013  0.37081166  0.86078409     0.18700
C2864       C  0.82919367  0.39801029  0.85790998    -0.17800
C2865       C  0.82670678  0.41609387  0.87959966    -0.20100
C2866       C  0.81572473  0.40744183  0.90430732     0.20200
C2867       C  0.81402492  0.42514393  0.92657194    -0.33100
C2868       C  0.80354958  0.41588717  0.95132587     0.00900
C2869       C  0.79371501  0.38918122  0.95329542    -0.24400
C2870       C  0.80774149  0.31593143  0.86803028    -0.29000
C2871       C  0.81904904  0.32459187  0.84344028     0.06600
C2872       C  0.82518482  0.35219741  0.83970194    -0.27700
H2873       H  0.78577788  0.30478055  0.91625461     0.11300
H2874       H  0.77919787  0.33695597  0.95336902     0.12400
H2875       H  0.83783849  0.40514797  0.83907756     0.11500
H2876       H  0.83355069  0.43680111  0.87710520     0.10800
H2877       H  0.82175308  0.44563533  0.92495662     0.16100
H2878       H  0.78526750  0.38191144  0.97218928     0.12000
H2879       H  0.80246749  0.29478595  0.87089104     0.14900
H2880       H  0.83376196  0.35904484  0.82071746     0.14700
C2881       C  0.00512667  0.25321303  0.11825231    -0.18200
C2882       C  0.98727769  0.25555495  0.14014944    -0.20400
C2883       C  0.96217734  0.24237293  0.13969632     0.20300
C2884       C  0.95532394  0.22615714  0.11717691    -0.03300
C2885       C  0.97351952  0.22340469  0.09533194    -0.06400
C2886       C  0.99843458  0.23726583  0.09568174     0.20600
C2887       C  0.96650681  0.20719884  0.07290323     0.18700
C2888       C  0.94168546  0.19353054  0.07265120    -0.17800
C2889       C  0.92358245  0.19648533  0.09410317    -0.20100
C2890       C  0.93007644  0.21301732  0.11622683     0.20200
C2891       C  0.91154765  0.21689038  0.13719438    -0.33100
C2892       C  0.91793532  0.23330920  0.15950393     0.00900
C2893       C  0.94357050  0.24550175  0.16100991    -0.24400
C2894       C  0.01591521  0.23532827  0.07326029    -0.29000
C2895       C  0.00868825  0.21975411  0.05052907     0.06600
C2896       C  0.98410820  0.20544370  0.05079155    -0.27700
H2897       H  0.02414177  0.26399735  0.11892064     0.11300
H2898       H  0.99293437  0.26805040  0.15725499     0.12400
H2899       H  0.93607351  0.18089374  0.05563456     0.11500
H2900       H  0.90435851  0.18606858  0.09324997     0.10800
H2901       H  0.89208471  0.20690660  0.13622688     0.16100
H2902       H  0.94868627  0.25799984  0.17830383     0.12000
H2903       H  0.03460462  0.24671006  0.07307116     0.14900
H2904       H  0.97835744  0.19336205  0.03339664     0.14700
C2905       C  0.00227491  0.25945997  0.88713017    -0.18200
C2906       C  0.98434633  0.26153562  0.86529870    -0.20400
C2907       C  0.96052727  0.24612965  0.86478387     0.20300
C2908       C  0.95462217  0.22865917  0.88661426    -0.03300
C2909       C  0.97281459  0.22633736  0.90842514    -0.06400
C2910       C  0.99685207  0.24171502  0.90869739     0.20600
C2911       C  0.96685515  0.20863091  0.93000682     0.18700
C2912       C  0.94281026  0.19368489  0.92986779    -0.17800
C2913       C  0.92475815  0.19608789  0.90838281    -0.20100
C2914       C  0.93050716  0.21344266  0.88669485     0.20200
C2915       C  0.91244215  0.21587632  0.86516243    -0.33100
C2916       C  0.91817040  0.23307963  0.84330957     0.00900
C2917       C  0.94238393  0.24795683  0.84300776    -0.24400
C2918       C  0.01476565  0.23923559  0.93068384    -0.29000
C2919       C  0.00864917  0.22174067  0.95234248     0.06600
C2920       C  0.98482264  0.20637051  0.95161323    -0.27700
H2921       H  0.02046000  0.27162795  0.88706894     0.11300
H2922       H  0.98909703  0.27522263  0.84882727     0.12400
H2923       H  0.93793887  0.18014823  0.94642714     0.11500
H2924       H  0.90629584  0.18433940  0.90871478     0.10800
H2925       H  0.89392684  0.20416383  0.86527539     0.16100
H2926       H  0.94674660  0.26136260  0.82618329     0.12000
H2927       H  0.03286442  0.25153223  0.93141057     0.14900
H2928       H  0.97997878  0.19292194  0.96828173     0.14700
C2929       C  0.31565098  0.55974041  0.12051881    -0.18200
C2930       C  0.31323254  0.57866610  0.14155322    -0.20400
C2931       C  0.32531892  0.60434085  0.13942214     0.20300
C2932       C  0.34048320  0.61075449  0.11611774    -0.03300
C2933       C  0.34311341  0.59162395  0.09507326    -0.06400
C2934       C  0.33020242  0.56615223  0.09698391     0.20600
C2935       C  0.35787867  0.59842358  0.07167522     0.18700
C2936       C  0.37050008  0.62378432  0.06971093    -0.17800
C2937       C  0.36778363  0.64274655  0.09044737    -0.20100
C2938       C  0.35256851  0.63654105  0.11351783     0.20200
C2939       C  0.34915006  0.65580612  0.13392648    -0.33100
C2940       C  0.33417667  0.64965491  0.15720741     0.00900
C2941       C  0.32244125  0.62380751  0.16001174    -0.24400
C2942       C  0.33079910  0.54832800  0.07470617    -0.29000
C2943       C  0.34379211  0.55608448  0.05059104     0.06600
C2944       C  0.35852859  0.58043957  0.04992289    -0.27700
H2945       H  0.30566291  0.54029951  0.12242457     0.11300
H2946       H  0.30157090  0.57336299  0.15932308     0.12400
H2947       H  0.38190372  0.62922216  0.05181044     0.11500
H2948       H  0.37729766  0.66240686  0.08828392     0.10800
H2949       H  0.35859188  0.67554073  0.13190381     0.16100
H2950       H  0.31085677  0.61902086  0.17799690     0.12000
H2951       H  0.31962349  0.52946126  0.07547607     0.14900
H2952       H  0.36919924  0.58628872  0.03167814     0.14700
C2953       C  0.35212010  0.65265439  0.91604547    -0.18200
C2954       C  0.35272158  0.63467816  0.93777523    -0.20400
C2955       C  0.34647860  0.60721023  0.93391490     0.20300
C2956       C  0.33992945  0.59759024  0.90790623    -0.03300
C2957       C  0.33946828  0.61576129  0.88587575    -0.06400
C2958       C  0.34543579  0.64339106  0.89012826     0.20600
C2959       C  0.33276395  0.60640053  0.85975333     0.18700
C2960       C  0.32676987  0.57882621  0.85595030    -0.17800
C2961       C  0.32710831  0.56078705  0.87788632    -0.20100
C2962       C  0.33345749  0.56997836  0.90402200     0.20200
C2963       C  0.33289034  0.55228010  0.92642481    -0.33100
C2964       C  0.33872517  0.56197969  0.95258244     0.00900
C2965       C  0.34609544  0.58940728  0.95584495    -0.24400
C2966       C  0.34446732  0.66145761  0.86850217    -0.29000
C2967       C  0.33756225  0.65254768  0.84243713     0.06600
C2968       C  0.33195207  0.62486822  0.83807615    -0.27700
H2969       H  0.35674788  0.67384353  0.91953865     0.11300
H2970       H  0.35776802  0.64233063  0.95768463     0.12400
H2971       H  0.32160057  0.57124182  0.83604791     0.11500
H2972       H  0.32215239  0.53967795  0.87444656     0.10800
H2973       H  0.32742180  0.53120734  0.92357034     0.16100
H2974       H  0.35095500  0.59731560  0.97570815     0.12000
H2975       H  0.34914667  0.68262561  0.87210752     0.14900
H2976       H  0.32658414  0.61779284  0.81802740     0.14700
C2977       C  0.15201932  0.74811902  0.12187860    -0.18200
C2978       C  0.16947179  0.74739194  0.14413619    -0.20400
C2979       C  0.19548859  0.73647993  0.14157664     0.20300
C2980       C  0.20364481  0.72527948  0.11660581    -0.03300
C2981       C  0.18609296  0.72606675  0.09417724    -0.06400
C2982       C  0.16024384  0.73786757  0.09669591     0.20600
C2983       C  0.19480110  0.71588597  0.06899975     0.18700
C2984       C  0.22036419  0.70392496  0.06666832    -0.17800
C2985       C  0.23766576  0.70298944  0.08891091    -0.20100
C2986       C  0.22973837  0.71423588  0.11371537     0.20200
C2987       C  0.24790299  0.71574137  0.13526339    -0.33100
C2988       C  0.24049811  0.72834010  0.15965417     0.00900
C2989       C  0.21391346  0.73766865  0.16310720    -0.24400
C2990       C  0.14343054  0.73980557  0.07383547    -0.29000
C2991       C  0.15250983  0.73057894  0.04853121     0.06600
C2992       C  0.17808028  0.71842254  0.04640078    -0.27700
H2993       H  0.13226124  0.75717390  0.12423770     0.11300
H2994       H  0.16284177  0.75595875  0.16319459     0.12400
H2995       H  0.22718589  0.69577958  0.04749194     0.11500
H2996       H  0.25754393  0.69419436  0.08649480     0.10800
H2997       H  0.26814320  0.70780352  0.13275630     0.16100
H2998       H  0.20799400  0.74707744  0.18202005     0.12000
H2999       H  0.12383571  0.74939250  0.07547113     0.14900
H3000       H  0.18510208  0.71111488  0.02693783     0.14700
C3001       C  0.24176937  0.77194253  0.91635450    -0.18200
C3002       C  0.22311540  0.77252189  0.93753104    -0.20400
C3003       C  0.19694666  0.76243046  0.93374805     0.20300
C3004       C  0.18908634  0.75252489  0.90821467    -0.03300
C3005       C  0.20786625  0.75213961  0.88677034    -0.06400
C3006       C  0.23448073  0.76140059  0.89103173     0.20600
C3007       C  0.20024393  0.74175556  0.86133410     0.18700
C3008       C  0.17376613  0.73245836  0.85739381    -0.17800
C3009       C  0.15523201  0.73253763  0.87876227    -0.20100
C3010       C  0.16279651  0.74213731  0.90437045     0.20200
C3011       C  0.14500126  0.74051448  0.92645750    -0.33100
C3012       C  0.15336622  0.74905909  0.95223275     0.00900
C3013       C  0.17893679  0.76098295  0.95540616    -0.24400
C3014       C  0.25349970  0.75940633  0.87010325    -0.29000
C3015       C  0.24626216  0.74844069  0.84484624     0.06600
C3016       C  0.21940314  0.74021010  0.84049430    -0.27700
H3017       H  0.26203597  0.77931956  0.91991681     0.11300
H3018       H  0.22936220  0.78024956  0.95706974     0.12400
H3019       H  0.16755638  0.72456161  0.83791857     0.11500
H3020       H  0.13513335  0.72463033  0.87538094     0.10800
H3021       H  0.12529411  0.73136746  0.92388609     0.16100
H3022       H  0.18533875  0.76811530  0.97513485     0.12000
H3023       H  0.27397770  0.76627826  0.87352883     0.14900
H3024       H  0.21356020  0.73184061  0.82108968     0.14700
loop_ 
_geom_bond_atom_site_label_1 
_geom_bond_atom_site_label_2 
_geom_bond_distance 
_geom_bond_site_symmetry_2 
_ccdc_geom_bond_type 
C1            N2   1.352   1_556  A
C1            N6   1.359       .  A
C1         C3012   1.476       .  S
N2            C3   1.350       .  A
C3            N4   1.360       .  A
C3         C2991   1.477       .  S
N4            C5   1.367   1_554  A
C5            N6   1.363       .  A
C5           C51   1.475       .  S
C7            N8   1.351       .  A
C7           N12   1.357       .  A
C7         C2943   1.481       .  S
N8            C9   1.352   1_554  A
C9           N10   1.363       .  A
C9         C2964   1.489       .  S
N10          C11   1.367       .  A
C11          N12   1.365   1_556  A
C11          C69   1.475       .  S
C13          N14   1.363       .  A
C13          N18   1.353       .  A
C13        C2895   1.486       .  S
N14          C15   1.368       .  A
C15          N16   1.364   1_554  A
C15          C63   1.481       .  S
N16          C17   1.360       .  A
C17          N18   1.354   1_556  A
C17        C2919   1.478       .  S
C19          N20   1.359       .  A
C19          N24   1.348   1_556  A
C19        C2868   1.478       .  S
N20          C21   1.366   1_556  A
C21          N22   1.365       .  A
C21          C57   1.471   1_554  S
N22          C23   1.359       .  A
C23          N24   1.348       .  A
C23        C2844   1.473       .  S
C25          N26   1.354   1_545  A
C25          N30   1.360       .  A
C25        C2796   1.478       .  S
N26          C27   1.355       .  A
C27          N28   1.355       .  A
C27        C2823   1.479       .  S
N28          C29   1.362       .  A
C29          N30   1.363   1_565  A
C29          C77   1.467   1_554  S
C31          N32   1.358       .  A
C31          N36   1.347   1_545  A
C31        C2751   1.487       .  S
N32          C33   1.369   1_545  A
C33          N34   1.370       .  A
C33          C95   1.472       .  S
N34          C35   1.362       .  A
C35          N36   1.350       .  A
C35        C2775   1.486       .  S
C37          N38   1.349       .  A
C37          N42   1.353       .  A
C37        C2724   1.468       .  S
N38          C39   1.353   1_565  A
C39          N40   1.361       .  A
C39        C2700   1.483       .  S
N40          C41   1.365   1_545  A
C41          N42   1.360       .  A
C41          C89   1.466   1_556  S
C43          N44   1.351       .  A
C43          N48   1.357       .  A
C43        C2679   1.474       .  S
N44          C45   1.349   1_565  A
C45          N46   1.357       .  A
C45        C2652   1.474       .  S
N46          C47   1.364   1_545  A
C47          N48   1.364       .  A
C47          C81   1.465       .  S
C49          N50   1.357       .  A
C49          N54   1.351   1_554  A
C49        C2604   1.491       .  S
N50          C51   1.366   1_554  A
C51          N52   1.373       .  A
N52          C53   1.364       .  A
C53          N54   1.352       .  A
C53        C2628   1.499       .  S
C55          N56   1.361       .  A
C55          N60   1.355   1_554  A
C55        C2556   1.483       .  S
N56          C57   1.366   1_554  A
C57          N58   1.362       .  A
N58          C59   1.356       .  A
C59          N60   1.354       .  A
C59        C2580   1.477       .  S
C61          N62   1.364       .  A
C61          N66   1.356   1_556  A
C61        C2532   1.497       .  S
N62          C63   1.370   1_556  A
C63          N64   1.365       .  A
N64          C65   1.359       .  A
C65          N66   1.355       .  A
C65        C2508   1.486       .  S
C67          N68   1.363       .  A
C67          N72   1.351       .  A
C67        C2484   1.486       .  S
N68          C69   1.369       .  A
C69          N70   1.366   1_556  A
N70          C71   1.358       .  A
C71          N72   1.348   1_554  A
C71        C2460   1.482       .  S
C73          N74   1.350       .  A
C73          N78   1.353       .  A
C73        C2436   1.473       .  S
N74          C75   1.353   1_565  A
C75          N76   1.362       .  A
C75        C2412   1.487       .  S
N76          C77   1.367   1_545  A
C77          N78   1.363       .  A
C79          N80   1.358       .  A
C79          N84   1.352   1_545  A
C79        C2364   1.474       .  S
N80          C81   1.362   1_545  A
C81          N82   1.361       .  A
N82          C83   1.356       .  A
C83          N84   1.351       .  A
C83        C2388   1.468       .  S
C85          N86   1.352   1_545  A
C85          N90   1.359       .  A
C85        C2319   1.479       .  S
N86          C87   1.350       .  A
C87          N88   1.357       .  A
C87        C2340   1.484       .  S
N88          C89   1.365       .  A
C89          N90   1.364   1_565  A
C91          N92   1.354       .  A
C91          N96   1.362       .  A
C91        C2295   1.482       .  S
N92          C93   1.347   1_565  A
C93          N94   1.356       .  A
C93        C2268   1.470       .  S
N94          C95   1.362   1_545  A
C95          N96   1.366       .  A
C97          N98   1.360       .  A
C97         N102   1.353       .  A
C97        C2244   1.479       .  S
N98          C99   1.364       .  A
C99         N100   1.366       .  A
C99         C113   1.471   1_545  S
N100        C101   1.358       .  A
C101        N102   1.351       .  A
C101       C2220   1.483       .  S
C103        N104   1.361       .  A
C103        N108   1.350       .  A
C103       C2196   1.486       .  S
N104        C105   1.370       .  A
C105        N106   1.365       .  A
C105        C143   1.473       .  S
N106        C107   1.358       .  A
C107        N108   1.350       .  A
C107       C2175   1.481       .  S
C109        N110   1.349       .  A
C109        N114   1.354       .  A
C109       C2124   1.472       .  S
N110        C111   1.348       .  A
C111        N112   1.364       .  A
C111       C2148   1.487       .  S
N112        C113   1.370       .  A
C113        N114   1.363       .  A
C115        N116   1.349       .  A
C115        N120   1.360       .  A
C115       C2100   1.487       .  S
N116        C117   1.350       .  A
C117        N118   1.361       .  A
C117       C2076   1.485       .  S
N118        C119   1.367       .  A
C119        N120   1.369       .  A
C119        C129   1.477       .  S
C121        N122   1.350       .  A
C121        N126   1.358       .  A
C121       C2052   1.484       .  S
N122        C123   1.349       .  A
C123        N124   1.359       .  A
C123       C2031   1.477       .  S
N124        C125   1.366       .  A
C125        N126   1.366       .  A
C125        C137   1.470   1_565  S
C127        N128   1.363       .  A
C127        N132   1.357       .  A
C127       C2004   1.492       .  S
N128        C129   1.368       .  A
C129        N130   1.365       .  A
N130        C131   1.358       .  A
C131        N132   1.355       .  A
C131       C1983   1.486       .  S
C133        N134   1.354       .  A
C133        N138   1.361       .  A
C133       C1956   1.486       .  S
N134        C135   1.352       .  A
C135        N136   1.356       .  A
C135       C1932   1.479       .  S
N136        C137   1.363       .  A
C137        N138   1.366       .  A
C139        N140   1.353       .  A
C139        N144   1.361       .  A
C139       C1887   1.486       .  S
N140        C141   1.352       .  A
C141        N142   1.358       .  A
C141       C1908   1.482       .  S
N142        C143   1.363       .  A
C143        N144   1.368       .  A
C145        N146   1.352       .  A
C145        N150   1.363       .  A
C145       C1836   1.481       .  S
N146        C147   1.352       .  A
C147        N148   1.358       .  A
C147       C1860   1.483       .  S
N148        C149   1.366       .  A
C149        N150   1.367       .  A
C149        C293   1.475       .  S
C151        N152   1.355       .  A
C151        N156   1.350       .  A
C151       C1815   1.472       .  S
N152        C153   1.363       .  A
C153        N154   1.366       .  A
C153        C363   1.470       .  S
N154        C155   1.362       .  A
C155        N156   1.353       .  A
C155       C1791   1.484       .  S
O157       Zr193   2.437       .  S
O157        C168   1.293       .  A
O158       Zr192   2.452       .  S
O158        C169   1.294       .  A
O159       Zr165   2.436       .  S
O159        C170   1.292       .  A
O160       Zr165   2.453       .  S
O160        C171   1.297       .  A
O161       Zr195   2.432       .  S
O161        C171   1.290       .  A
O162       Zr194   2.428       .  S
O162        C170   1.292       .  A
O163       Zr165   2.454       .  S
O163        C169   1.296       .  A
O164       Zr165   2.432       .  S
O164        C168   1.291       .  A
Zr165       O166   2.334       .  S
Zr165       O167   2.342       .  S
Zr165       O175   2.343       .  S
Zr165       O173   2.338       .  S
O166       Zr192   2.342       .  S
O166       Zr195   2.348       .  S
O167       Zr193   2.337       .  S
O167       Zr194   2.335       .  S
C168       C2988   1.476       .  S
C169       C2007   1.493       .  S
C170       C1788   1.481       .  S
C171       C2055   1.489       .  S
H172        O173   0.963       .  S
O173       Zr192   2.332       .  S
O173       Zr194   2.334       .  S
H174        O175   0.964       .  S
O175       Zr193   2.349       .  S
O175       Zr195   2.340       .  S
O176       Zr192   2.430       .  S
O176        C199   1.292       .  A
O177       Zr193   2.455       .  S
O177        C200   1.294       .  A
O178       Zr194   2.437       .  S
O178        C201   1.293       .  A
O179       Zr195   2.435       .  S
O179        C202   1.291       .  A
O180       Zr195   2.431       .  S
O180        C203   1.292       .  A
O181       Zr194   2.431       .  S
O181        C204   1.290       .  A
O182       Zr196   2.415       .  S
O182        C205   1.289       .  A
O183       Zr196   2.416       .  S
O183        C206   1.288       .  A
O184       Zr194   2.445       .  S
O184        C205   1.293       .  A
O185       Zr195   2.436       .  S
O185        C206   1.293       .  A
O186       Zr192   2.437       .  S
O186        C201   1.292       .  A
O187       Zr193   2.440       .  S
O187        C204   1.294       .  A
O188       Zr193   2.450       .  S
O188        C203   1.294       .  A
O189       Zr192   2.429       .  S
O189        C202   1.292       .  A
O190       Zr196   2.458       .  S
O190        C199   1.295       .  A
O191       Zr196   2.444       .  S
O191        C200   1.294       .  A
Zr192       O198   2.344       .  S
Zr192       O210   2.343       .  S
Zr193       O197   2.341       .  S
Zr193       O208   2.340       .  S
Zr194       O198   2.339       .  S
Zr194       O208   2.333       .  S
Zr195       O197   2.339       .  S
Zr195       O210   2.334       .  S
Zr196       O197   2.344       .  S
Zr196       O198   2.343       .  S
Zr196       O210   2.334       .  S
Zr196       O208   2.336       .  S
C199       C1740   1.489       .  S
C200       C1716   1.485       .  S
C201       C1839   1.480       .  S
C202       C1767   1.471       .  S
C203       C2343   1.484       .  S
C204       C2940   1.474       .  S
C205       C1695   1.477       .  S
C206       C2292   1.476       .  S
H207        O208   0.964       .  S
H209        O210   0.964       .  S
C211        N212   1.362       .  A
C211        N216   1.349       .  A
C211       C1668   1.486       .  S
N212        C213   1.369       .  A
C213        N214   1.363       .  A
C213        C603   1.469       .  S
N214        C215   1.355       .  A
C215        N216   1.347       .  A
C215       C1647   1.474       .  S
C217        N218   1.360       .  A
C217        N222   1.355       .  A
C217       C1623   1.487       .  S
N218        C219   1.365       .  A
C219        N220   1.366       .  A
C219        C285   1.471   1_545  S
N220        C221   1.359       .  A
C221        N222   1.351       .  A
C221       C1596   1.482       .  S
O223       Zr259   2.424       .  S
O223        C234   1.291       .  A
O224       Zr258   2.436       .  S
O224        C235   1.292       .  A
O225       Zr231   2.429       .  S
O225        C236   1.291       .  A
O226       Zr231   2.449       .  S
O226        C237   1.295       .  A
O227       Zr261   2.448       .  S
O227        C237   1.293       .  A
O228       Zr260   2.431       .  S
O228        C236   1.293       .  A
O229       Zr231   2.436       .  S
O229        C235   1.293       .  A
O230       Zr231   2.433       .  S
O230        C234   1.291       .  A
Zr231       O232   2.328       .  S
Zr231       O233   2.347       .  S
Zr231       O241   2.335       .  S
Zr231       O239   2.347       .  S
O232       Zr258   2.342       .  S
O232       Zr261   2.328       .  S
O233       Zr259   2.336       .  S
O233       Zr260   2.339       .  S
C234       C2703   1.477       .  S
C235       C2487   1.481       .  S
C236       C1527   1.471       .  S
C237       C2535   1.491       .  S
H238        O239   0.966       .  S
O239       Zr258   2.339       .  S
O239       Zr260   2.347       .  S
H240        O241   0.966       .  S
O241       Zr259   2.345       .  S
O241       Zr261   2.341       .  S
O242       Zr258   2.443       .  S
O242        C265   1.294       .  A
O243       Zr259   2.428       .  S
O243        C266   1.290       .  A
O244       Zr260   2.438       .  S
O244        C267   1.293       .  A
O245       Zr261   2.448       .  S
O245        C268   1.293       .  A
O246       Zr261   2.421       .  S
O246        C269   1.291       .  A
O247       Zr260   2.452       .  S
O247        C270   1.295       .  A
O248       Zr262   2.443       .  S
O248        C271   1.294       .  A
O249       Zr262   2.443       .  S
O249        C272   1.293       .  A
O250       Zr260   2.431       .  S
O250        C271   1.291       .  A
O251       Zr261   2.429       .  S
O251        C272   1.292       .  A
O252       Zr258   2.460       .  S
O252        C267   1.296       .  A
O253       Zr259   2.436       .  S
O253        C270   1.292       .  A
O254       Zr259   2.449       .  S
O254        C269   1.294       .  A
O255       Zr258   2.431       .  S
O255        C268   1.293       .  A
O256       Zr262   2.431       .  S
O256        C265   1.290       .  A
O257       Zr262   2.440       .  S
O257        C266   1.294       .  A
Zr258       O264   2.337       .  S
Zr258       O276   2.337       .  S
Zr259       O263   2.334       .  S
Zr259       O274   2.344       .  S
Zr260       O264   2.341       .  S
Zr260       O274   2.345       .  S
Zr261       O263   2.340       .  S
Zr261       O276   2.340       .  S
Zr262       O263   2.335       .  S
Zr262       O264   2.343       .  S
Zr262       O276   2.342       .  S
Zr262       O274   2.336       .  S
C265       C1548   1.475       .  S
C266       C1599   1.477       .  S
C267       C1503   1.490       .  S
C268       C1575   1.486       .  S
C269       C2223   1.479       .  S
C270       C2655   1.483       .  S
C271       C1644   1.478       .  S
C272       C2172   1.483       .  S
H273        O274   0.966       .  S
H275        O276   0.965       .  S
C277        N278   1.362       .  A
C277        N282   1.353       .  A
C277       C1743   1.488       .  S
N278        C279   1.368       .  A
C279        N280   1.368       .  A
C279        C435   1.476       .  S
N280        C281   1.359       .  A
C281        N282   1.351       .  A
C281       C1476   1.482       .  S
C283        N284   1.355       .  A
C283        N288   1.352       .  A
C283       C1452   1.475       .  S
N284        C285   1.360       .  A
C285        N286   1.366       .  A
N286        C287   1.362       .  A
C287        N288   1.352       .  A
C287       C1764   1.480       .  S
C289        N290   1.350       .  A
C289        N294   1.357       .  A
C289       C1551   1.476       .  S
N290        C291   1.352       .  A
C291        N292   1.363       .  A
C291       C1428   1.483       .  S
N292        C293   1.367       .  A
C293        N294   1.364       .  A
C295        N296   1.347       .  A
C295        N300   1.358       .  A
C295       C1572   1.485       .  S
N296        C297   1.348       .  A
C297        N298   1.360       .  A
C297       C1404   1.483       .  S
N298        C299   1.367       .  A
C299        N300   1.369       .  A
C299        C465   1.471       .  S
O301       Zr337   2.450       .  S
O301        C312   1.295       .  A
O302       Zr336   2.439       .  S
O302        C313   1.293       .  A
O303       Zr309   2.437       .  S
O303        C314   1.294       .  A
O304       Zr309   2.442       .  S
O304        C315   1.292       .  A
O305       Zr339   2.431       .  S
O305        C315   1.292       .  A
O306       Zr338   2.418       .  S
O306        C314   1.287       .  A
O307       Zr309   2.426       .  S
O307        C313   1.292       .  A
O308       Zr309   2.438       .  S
O308        C312   1.292       .  A
Zr309       O310   2.337       .  S
Zr309       O311   2.328       .  S
Zr309       O319   2.341       .  S
Zr309       O317   2.342       .  S
O310       Zr336   2.336       .  S
O310       Zr339   2.331       .  S
O311       Zr337   2.337       .  S
O311       Zr338   2.332       .  S
C312       C3015   1.485       .  S
C313       C2079   1.477       .  S
C314       C2127   1.469       .  S
C315       C1407   1.484       .  S
H316        O317   0.966       .  S
O317       Zr336   2.349       .  S
O317       Zr338   2.347       .  S
H318        O319   0.966       .  S
O319       Zr337   2.335       .  S
O319       Zr339   2.343       .  S
O320       Zr336   2.452       .  S
O320        C343   1.295       .  A
O321       Zr337   2.455       .  S
O321        C344   1.296       .  A
O322       Zr338   2.437       .  S
O322        C345   1.292       .  A
O323       Zr339   2.411       .  S
O323        C346   1.288       .  A
O324       Zr339   2.424       .  S
O324        C347   1.289       .  A
O325       Zr338   2.443       .  S
O325        C348   1.293       .  A
O326       Zr340   2.439       .  S
O326        C349   1.292       .  A
O327       Zr340   2.423       .  S
O327        C350   1.291       .  A
O328       Zr338   2.425       .  S
O328        C349   1.291       .  A
O329       Zr339   2.446       .  S
O329        C350   1.293       .  A
O330       Zr336   2.425       .  S
O330        C345   1.291       .  A
O331       Zr337   2.417       .  S
O331        C348   1.288       .  A
O332       Zr337   2.428       .  S
O332        C347   1.292       .  A
O333       Zr336   2.452       .  S
O333        C346   1.295       .  A
O334       Zr340   2.447       .  S
O334        C343   1.293       .  A
O335       Zr340   2.416       .  S
O335        C344   1.290       .  A
Zr336       O342   2.342       .  S
Zr336       O354   2.329       .  S
Zr337       O341   2.334       .  S
Zr337       O352   2.343       .  S
Zr338       O342   2.340       .  S
Zr338       O352   2.337       .  S
Zr339       O341   2.330       .  S
Zr339       O354   2.343       .  S
Zr340       O341   2.341       .  S
Zr340       O342   2.328       .  S
Zr340       O354   2.337       .  S
Zr340       O352   2.345       .  S
C343       C1479   1.482       .  S
C344       C1380   1.481       .  S
C345       C1455   1.472       .  S
C346       C1431   1.477       .  S
C347       C2967   1.477       .  S
C348       C2727   1.463       .  S
C349       C2676   1.477       .  S
C350       C1359   1.485       .  S
H351        O352   0.966       .  S
H353        O354   0.966       .  S
C355        N356   1.356       .  A
C355        N360   1.350       .  A
C355       C1308   1.476       .  S
N356        C357   1.363       .  A
C357        N358   1.362       .  A
C357        C459   1.465       .  S
N358        C359   1.359       .  A
C359        N360   1.353       .  A
C359       C1332   1.477       .  S
C361        N362   1.360       .  A
C361        N366   1.349       .  A
C361       C1263   1.480       .  S
N362        C363   1.366       .  A
C363        N364   1.366       .  A
N364        C365   1.357       .  A
C365        N366   1.351       .  A
C365       C1287   1.484       .  S
C367        N368   1.359       .  A
C367        N372   1.350       .  A
C367       C1239   1.478       .  S
N368        C369   1.366       .  A
C369        N370   1.366       .  A
C369        C525   1.477       .  S
N370        C371   1.361       .  A
C371        N372   1.352       .  A
C371       C1692   1.484       .  S
C373        N374   1.361       .  A
C373        N378   1.356       .  A
C373       C1215   1.495       .  S
N374        C375   1.368       .  A
C375        N376   1.361       .  A
C375        C453   1.470   1_554  S
N376        C377   1.356       .  A
C377        N378   1.356       .  A
C377       C1719   1.481       .  S
O379       Zr415   2.428       .  S
O379        C390   1.292       .  A
O380       Zr414   2.436       .  S
O380        C391   1.291       .  A
O381       Zr387   2.434       .  S
O381        C392   1.293       .  A
O382       Zr387   2.455       .  S
O382        C393   1.294       .  A
O383       Zr417   2.438       .  S
O383        C393   1.293       .  A
O384       Zr416   2.459       .  S
O384        C392   1.296       .  A
O385       Zr387   2.448       .  S
O385        C391   1.295       .  A
O386       Zr387   2.422       .  S
O386        C390   1.289       .  A
Zr387       O388   2.330       .  S
Zr387       O389   2.352       .  S
Zr387       O397   2.345       .  S
Zr387       O395   2.334       .  S
O388       Zr414   2.336       .  S
O388       Zr417   2.335       .  S
O389       Zr415   2.340       .  S
O389       Zr416   2.343       .  S
C390       C2820   1.476       .  S
C391       C2559   1.482       .  S
C392       C2607   1.491       .  S
C393       C1212   1.492       .  S
H394        O395   0.964       .  S
O395       Zr414   2.336       .  S
O395       Zr416   2.347       .  S
H396        O397   0.965       .  S
O397       Zr415   2.345       .  S
O397       Zr417   2.338       .  S
O398       Zr414   2.429       .  S
O398        C421   1.291       .  A
O399       Zr415   2.442       .  S
O399        C422   1.293       .  A
O400       Zr416   2.423       .  S
O400        C423   1.290       .  A
O401       Zr417   2.434       .  S
O401        C424   1.292       .  A
O402       Zr417   2.439       .  S
O402        C425   1.292       .  A
O403       Zr416   2.437       .  S
O403        C426   1.293       .  A
O404       Zr418   2.449       .  S
O404        C427   1.294       .  A
O405       Zr418   2.431       .  S
O405        C428   1.292       .  A
O406       Zr416   2.457       .  S
O406        C427   1.297       .  A
O407       Zr417   2.440       .  S
O407        C428   1.293       .  A
O408       Zr414   2.433       .  S
O408        C423   1.293       .  A
O409       Zr415   2.440       .  S
O409        C426   1.293       .  A
O410       Zr415   2.447       .  S
O410        C425   1.295       .  A
O411       Zr414   2.428       .  S
O411        C424   1.290       .  A
O412       Zr418   2.446       .  S
O412        C421   1.293       .  A
O413       Zr418   2.433       .  S
O413        C422   1.292       .  A
Zr414       O420   2.344       .  S
Zr414       O432   2.339       .  S
Zr415       O419   2.332       .  S
Zr415       O430   2.339       .  S
Zr416       O420   2.349       .  S
Zr416       O430   2.335       .  S
Zr417       O419   2.336       .  S
Zr417       O432   2.342       .  S
Zr418       O419   2.343       .  S
Zr418       O420   2.341       .  S
Zr418       O432   2.342       .  S
Zr418       O430   2.335       .  S
C421       C1311   1.476       .  S
C422       C1188   1.478       .  S
C423       C1260   1.472       .  S
C424       C1236   1.469       .  S
C425       C2772   1.486       .  S
C426       C2028   1.479       .  S
C427       C1980   1.493       .  S
C428       C1164   1.480       .  S
H429        O430   0.965       .  S
H431        O432   0.965       .  S
C433        N434   1.358       .  A
C433        N438   1.351       .  A
C433       C1143   1.485       .  S
N434        C435   1.367       .  A
C435        N436   1.369       .  A
N436        C437   1.362       .  A
C437        N438   1.350       .  A
C437       C1167   1.487       .  S
C439        N440   1.354       .  A
C439        N444   1.359       .  A
C439       C1119   1.482       .  S
N440        C441   1.352       .  A
C441        N442   1.357       .  A
C441       C1191   1.481       .  S
N442        C443   1.364       .  A
C443        N444   1.364       .  A
C443        C609   1.469   1_565  S
C445        N446   1.349       .  A
C445        N450   1.359       .  A
C445       C1092   1.483       .  S
N446        C447   1.352       .  A
C447        N448   1.365       .  A
C447       C1356   1.493       .  S
N448        C449   1.371       .  A
C449        N450   1.365       .  A
C449        C593   1.479       .  S
C451        N452   1.363       .  A
C451        N456   1.353       .  A
C451       C1383   1.489       .  S
N452        C453   1.369       .  A
C453        N454   1.361       .  A
N454        C455   1.355       .  A
C455        N456   1.350       .  A
C455       C1068   1.472       .  S
C457        N458   1.352       .  A
C457        N462   1.349       .  A
C457       C1044   1.466       .  S
N458        C459   1.361       .  A
C459        N460   1.367       .  A
N460        C461   1.361       .  A
C461        N462   1.350       .  A
C461       C1023   1.479       .  S
C463        N464   1.362       .  A
C463        N468   1.356       .  A
C463        C999   1.485       .  S
N464        C465   1.367       .  A
C465        N466   1.362       .  A
N466        C467   1.355       .  A
C467        N468   1.353       .  A
C467        C975   1.477       .  S
O469       Zr505   2.447       .  S
O469        C480   1.295       .  A
O470       Zr504   2.445       .  S
O470        C481   1.293       .  A
O471       Zr477   2.422       .  S
O471        C482   1.289       .  A
O472       Zr477   2.436       .  S
O472        C483   1.293       .  A
O473       Zr507   2.440       .  S
O473        C483   1.292       .  A
O474       Zr506   2.448       .  S
O474        C482   1.296       .  A
O475       Zr477   2.430       .  S
O475        C481   1.292       .  A
O476       Zr477   2.436       .  S
O476        C480   1.292       .  A
Zr477       O478   2.332       .  S
Zr477       O479   2.341       .  S
Zr477       O487   2.339       .  S
Zr477       O485   2.338       .  S
O478       Zr504   2.333       .  S
O478       Zr507   2.339       .  S
O479       Zr505   2.331       .  S
O479       Zr506   2.332       .  S
C480       C2631   1.487       .  S
C481       C2103   1.481       .  S
C482        C996   1.475       .  S
C483       C2151   1.483       .  S
H484        O485   0.966       .  S
O485       Zr504   2.340       .  S
O485       Zr506   2.349       .  S
H486        O487   0.966       .  S
O487       Zr505   2.346       .  S
O487       Zr507   2.343       .  S
O488       Zr504   2.433       .  S
O488        C511   1.293       .  A
O489       Zr505   2.443       .  S
O489        C512   1.293       .  A
O490       Zr506   2.420       .  S
O490        C513   1.291       .  A
O491       Zr507   2.443       .  S
O491        C514   1.292       .  A
O492       Zr507   2.439       .  S
O492        C515   1.293       .  A
O493       Zr506   2.453       .  S
O493        C516   1.294       .  A
O494       Zr508   2.435       .  S
O494        C517   1.292       .  A
O495       Zr508   2.406       .  S
O495        C518   1.287       .  A
O496       Zr506   2.455       .  S
O496        C517   1.296       .  A
O497       Zr507   2.434       .  S
O497        C518   1.293       .  A
O498       Zr504   2.427       .  S
O498        C513   1.290       .  A
O499       Zr505   2.423       .  S
O499        C516   1.291       .  A
O500       Zr505   2.435       .  S
O500        C515   1.291       .  A
O501       Zr504   2.425       .  S
O501        C514   1.292       .  A
O502       Zr508   2.449       .  S
O502        C511   1.293       .  A
O503       Zr508   2.447       .  S
O503        C512   1.294       .  A
Zr504       O510   2.337       .  S
Zr504       O522   2.340       .  S
Zr505       O509   2.335       .  S
Zr505       O520   2.349       .  S
Zr506       O510   2.336       .  S
Zr506       O520   2.339       .  S
Zr507       O509   2.338       .  S
Zr507       O522   2.345       .  S
Zr508       O509   2.343       .  S
Zr508       O510   2.330       .  S
Zr508       O522   2.342       .  S
Zr508       O520   2.338       .  S
C511       C1140   1.484       .  S
C512       C1071   1.478       .  S
C513       C1047   1.466       .  S
C514       C1116   1.477       .  S
C515       C2439   1.473       .  S
C516       C2583   1.479       .  S
C517       C1095   1.485       .  S
C518       C2391   1.465       .  S
H519        O520   0.966       .  S
H521        O522   0.966       .  S
C523        N524   1.362       .  A
C523        N528   1.353       .  A
C523        C927   1.485       .  S
N524        C525   1.366       .  A
C525        N526   1.364       .  A
N526        C527   1.360       .  A
C527        N528   1.352       .  A
C527        C948   1.478       .  S
C529        N530   1.358       .  A
C529        N534   1.348       .  A
C529        C900   1.480       .  S
N530        C531   1.366       .  A
C531        N532   1.368       .  A
C531        C597   1.473   1_554  S
N532        C533   1.361       .  A
C533        N534   1.352       .  A
C533        C879   1.488       .  S
O535       Zr571   2.441       .  S
O535        C546   1.294       .  A
O536       Zr570   2.449       .  S
O536        C547   1.293       .  A
O537       Zr543   2.425       .  S
O537        C548   1.289       .  A
O538       Zr543   2.411       .  S
O538        C549   1.289       .  A
O539       Zr573   2.446       .  S
O539        C549   1.294       .  A
O540       Zr572   2.441       .  S
O540        C548   1.295       .  A
O541       Zr543   2.452       .  S
O541        C547   1.295       .  A
O542       Zr543   2.437       .  S
O542        C546   1.292       .  A
Zr543       O544   2.335       .  S
Zr543       O545   2.341       .  S
Zr543       O553   2.349       .  S
Zr543       O551   2.336       .  S
O544       Zr570   2.338       .  S
O544       Zr573   2.349       .  S
O545       Zr571   2.345       .  S
O545       Zr572   2.336       .  S
C546       C2892   1.478       .  S
C547       C1911   1.489       .  S
C548       C1284   1.482       .  S
C549       C1959   1.480       .  S
H550        O551   0.966       .  S
O551       Zr570   2.335       .  S
O551       Zr572   2.336       .  S
H552        O553   0.966       .  S
O553       Zr571   2.338       .  S
O553       Zr573   2.337       .  S
O554       Zr570   2.427       .  S
O554        C577   1.292       .  A
O555       Zr571   2.446       .  S
O555        C578   1.293       .  A
O556       Zr572   2.438       .  S
O556        C579   1.293       .  A
O557       Zr573   2.436       .  S
O557        C580   1.292       .  A
O558       Zr573   2.454       .  S
O558        C581   1.296       .  A
O559       Zr572   2.444       .  S
O559        C582   1.293       .  A
O560       Zr574   2.434       .  S
O560        C583   1.292       .  A
O561       Zr574   2.448       .  S
O561        C584   1.293       .  A
O562       Zr572   2.432       .  S
O562        C583   1.292       .  A
O563       Zr573   2.436       .  S
O563        C584   1.293       .  A
O564       Zr570   2.452       .  S
O564        C579   1.294       .  A
O565       Zr571   2.417       .  S
O565        C582   1.289       .  A
O566       Zr571   2.439       .  S
O566        C581   1.292       .  A
O567       Zr570   2.429       .  S
O567        C580   1.292       .  A
O568       Zr574   2.428       .  S
O568        C577   1.290       .  A
O569       Zr574   2.449       .  S
O569        C578   1.295       .  A
Zr570       O576   2.333       .  S
Zr570       O588   2.348       .  S
Zr571       O575   2.339       .  S
Zr571       O586   2.342       .  S
Zr572       O576   2.336       .  S
Zr572       O586   2.345       .  S
Zr573       O575   2.337       .  S
Zr573       O588   2.340       .  S
Zr574       O575   2.334       .  S
Zr574       O576   2.342       .  S
Zr574       O588   2.343       .  S
Zr574       O586   2.342       .  S
C577        C828   1.474       .  S
C578        C903   1.481       .  S
C579       C1335   1.485       .  S
C580        C855   1.473       .  S
C581       C2799   1.484       .  S
C582       C2847   1.470       .  S
C583        C951   1.476       .  S
C584       C2748   1.488       .  S
H585        O586   0.966       .  S
H587        O588   0.966       .  S
C589        N590   1.354       .  A
C589        N594   1.361       .  A
C589       C1500   1.487       .  S
N590        C591   1.352       .  A
C591        N592   1.362       .  A
C591        C804   1.488       .  S
N592        C593   1.368       .  A
C593        N594   1.365       .  A
C595        N596   1.359       .  A
C595        N600   1.350       .  A
C595       C1524   1.477       .  S
N596        C597   1.365       .  A
C597        N598   1.368       .  A
N598        C599   1.360       .  A
C599        N600   1.349       .  A
C599        C780   1.487       .  S
C601        N602   1.358       .  A
C601        N606   1.349       .  A
C601        C759   1.480       .  S
N602        C603   1.367       .  A
C603        N604   1.364       .  A
N604        C605   1.358       .  A
C605        N606   1.352       .  A
C605        C831   1.477       .  S
C607        N608   1.356       .  A
C607        N612   1.348       .  A
C607        C852   1.476       .  S
N608        C609   1.364       .  A
C609        N610   1.367       .  A
N610        C611   1.361       .  A
C611        N612   1.351       .  A
C611        C732   1.484       .  S
O613       Zr649   2.439       .  S
O613        C624   1.293       .  A
O614       Zr648   2.434       .  S
O614        C625   1.292       .  A
O615       Zr621   2.446       .  S
O615        C626   1.295       .  A
O616       Zr621   2.442       .  S
O616        C627   1.292       .  A
O617       Zr651   2.457       .  S
O617        C627   1.296       .  A
O618       Zr650   2.426       .  S
O618        C626   1.290       .  A
O619       Zr621   2.432       .  S
O619        C625   1.292       .  A
O620       Zr621   2.435       .  S
O620        C624   1.291       .  A
Zr621       O622   2.343       .  S
Zr621       O623   2.345       .  S
Zr621       O631   2.346       .  S
Zr621       O629   2.331       .  S
O622       Zr648   2.346       .  S
O622       Zr651   2.338       .  S
O623       Zr649   2.340       .  S
O623       Zr650   2.335       .  S
C624       C2916   1.473       .  S
C625       C2199   1.478       .  S
C626       C2247   1.475       .  S
C627        C972   1.484       .  S
H628        O629   0.966       .  S
O629       Zr648   2.330       .  S
O629       Zr650   2.331       .  S
H630        O631   0.966       .  S
O631       Zr649   2.349       .  S
O631       Zr651   2.344       .  S
O632       Zr648   2.440       .  S
O632        C655   1.293       .  A
O633       Zr649   2.449       .  S
O633        C656   1.294       .  A
O634       Zr650   2.421       .  S
O634        C657   1.289       .  A
O635       Zr651   2.429       .  S
O635        C658   1.292       .  A
O636       Zr651   2.426       .  S
O636        C659   1.290       .  A
O637       Zr650   2.430       .  S
O637        C660   1.292       .  A
O638       Zr652   2.445       .  S
O638        C661   1.293       .  A
O639       Zr652   2.443       .  S
O639        C662   1.294       .  A
O640       Zr650   2.419       .  S
O640        C661   1.289       .  A
O641       Zr651   2.450       .  S
O641        C662   1.294       .  A
O642       Zr648   2.433       .  S
O642        C657   1.293       .  A
O643       Zr649   2.441       .  S
O643        C660   1.292       .  A
O644       Zr649   2.434       .  S
O644        C659   1.293       .  A
O645       Zr648   2.435       .  S
O645        C658   1.291       .  A
O646       Zr652   2.447       .  S
O646        C655   1.294       .  A
O647       Zr652   2.440       .  S
O647        C656   1.294       .  A
Zr648       O654   2.339       .  S
Zr648       O666   2.332       .  S
Zr649       O653   2.340       .  S
Zr649       O664   2.341       .  S
Zr650       O654   2.339       .  S
Zr650       O664   2.333       .  S
Zr651       O653   2.343       .  S
Zr651       O666   2.341       .  S
Zr652       O653   2.338       .  S
Zr652       O654   2.335       .  S
Zr652       O666   2.340       .  S
Zr652       O664   2.344       .  S
C655        C756   1.484       .  S
C656        C783   1.490       .  S
C657        C735   1.473       .  S
C658       C1020   1.478       .  S
C659       C2871   1.475       .  S
C660       C2415   1.485       .  S
C661       C2367   1.477       .  S
C662        C807   1.481       .  S
H663        O664   0.966       .  S
H665        O666   0.966       .  S
O667       Zr703   2.445       .  S
O667        C678   1.294       .  A
O668       Zr702   2.419       .  S
O668        C679   1.288       .  A
O669       Zr675   2.433       .  S
O669        C680   1.293       .  A
O670       Zr675   2.433       .  S
O670        C681   1.291       .  A
O671       Zr705   2.435       .  S
O671        C681   1.292       .  A
O672       Zr704   2.435       .  S
O672        C680   1.291       .  A
O673       Zr675   2.440       .  S
O673        C679   1.294       .  A
O674       Zr675   2.429       .  S
O674        C678   1.290       .  A
Zr675       O676   2.325       .  S
Zr675       O677   2.334       .  S
Zr675       O685   2.344       .  S
Zr675       O683   2.343       .  S
O676       Zr702   2.326       .  S
O676       Zr705   2.328       .  S
O677       Zr703   2.337       .  S
O677       Zr704   2.341       .  S
C678       C2511   1.474       .  S
C679       C1884   1.476       .  S
C680       C1935   1.478       .  S
C681       C1812   1.471       .  S
H682        O683   0.966       .  S
O683       Zr702   2.344       .  S
O683       Zr704   2.348       .  S
H684        O685   0.965       .  S
O685       Zr703   2.342       .  S
O685       Zr705   2.342       .  S
O686       Zr702   2.419       .  S
O686        C709   1.290       .  A
O687       Zr703   2.451       .  S
O687        C710   1.294       .  A
O688       Zr704   2.455       .  S
O688        C711   1.295       .  A
O689       Zr705   2.447       .  S
O689        C712   1.295       .  A
O690       Zr705   2.444       .  S
O690        C713   1.293       .  A
O691       Zr704   2.452       .  S
O691        C714   1.296       .  A
O692       Zr706   2.460       .  S
O692        C715   1.296       .  A
O693       Zr706   2.446       .  S
O693        C716   1.295       .  A
O694       Zr704   2.435       .  S
O694        C715   1.292       .  A
O695       Zr705   2.444       .  S
O695        C716   1.294       .  A
O696       Zr702   2.435       .  S
O696        C711   1.293       .  A
O697       Zr703   2.428       .  S
O697        C714   1.290       .  A
O698       Zr703   2.422       .  S
O698        C713   1.290       .  A
O699       Zr702   2.447       .  S
O699        C712   1.293       .  A
O700       Zr706   2.452       .  S
O700        C709   1.295       .  A
O701       Zr706   2.429       .  S
O701        C710   1.292       .  A
Zr702       O708   2.339       .  S
Zr702       O720   2.345       .  S
Zr703       O707   2.333       .  S
Zr703       O718   2.342       .  S
Zr704       O708   2.345       .  S
Zr704       O718   2.344       .  S
Zr705       O707   2.338       .  S
Zr705       O720   2.345       .  S
Zr706       O707   2.337       .  S
Zr706       O708   2.339       .  S
Zr706       O720   2.350       .  S
Zr706       O718   2.347       .  S
C709       C1671   1.483       .  S
C710        C876   1.487       .  S
C711       C1620   1.491       .  S
C712       C1863   1.492       .  S
C713       C2463   1.481       .  S
C714       C2316   1.482       .  S
C715       C2271   1.475       .  S
C716        C924   1.490       .  S
H717        O718   0.965       .  S
H719        O720   0.966       .  S
C721        C722   1.401       .  A
C721        C726   1.404       .  A
C721        H737   1.084       .  S
C722        C723   1.405       .  A
C722        H738   1.083       .  S
C723        C733   1.410       .  A
C723        C724   1.414       .  A
C724        C730   1.407       .  A
C724        C725   1.409       .  A
C725        C727   1.413       .  A
C725        C726   1.410       .  A
C726        C734   1.402       .  A
C727        C736   1.396       .  A
C727        C728   1.401       .  A
C728        C729   1.394       .  A
C728        H739   1.084       .  S
C729        C730   1.403       .  A
C729        H740   1.084       .  S
C730        C731   1.392       .  A
C731        C732   1.409       .  A
C731        H741   1.084       .  S
C732        C733   1.408       .  A
C733        H742   1.084       .  S
C734        C735   1.408       .  A
C734        H743   1.084       .  S
C735        C736   1.404       .  A
C736        H744   1.085       .  S
C745        C746   1.397       .  A
C745        C750   1.403       .  A
C745        H761   1.084       .  S
C746        C747   1.403       .  A
C746        H762   1.084       .  S
C747        C757   1.400       .  A
C747        C748   1.412       .  A
C748        C754   1.411       .  A
C748        C749   1.413       .  A
C749        C751   1.414       .  A
C749        C750   1.409       .  A
C750        C758   1.397       .  A
C751        C760   1.410       .  A
C751        C752   1.404       .  A
C752        C753   1.402       .  A
C752        H763   1.083       .  S
C753        C754   1.405       .  A
C753        H764   1.083       .  S
C754        C755   1.408       .  A
C755        C756   1.409       .  A
C755        H765   1.084       .  S
C756        C757   1.407       .  A
C757        H766   1.084       .  S
C758        C759   1.408       .  A
C758        H767   1.085       .  S
C759        C760   1.406       .  A
C760        H768   1.084       .  S
C769        C770   1.404       .  A
C769        C774   1.406       .  A
C769        H785   1.083       .  S
C770        C771   1.405       .  A
C770        H786   1.083       .  S
C771        C781   1.412       .  A
C771        C772   1.413       .  A
C772        C778   1.408       .  A
C772        C773   1.413       .  A
C773        C775   1.410       .  A
C773        C774   1.411       .  A
C774        C782   1.411       .  A
C775        C784   1.397       .  A
C775        C776   1.402       .  A
C776        C777   1.394       .  A
C776        H787   1.084       .  S
C777        C778   1.402       .  A
C777        H788   1.084       .  S
C778        C779   1.394       .  A
C779        C780   1.410       .  A
C779        H789   1.084       .  S
C780        C781   1.409       .  A
C781        H790   1.084       .  S
C782        C783   1.413       .  A
C782        H791   1.084       .  S
C783        C784   1.408       .  A
C784        H792   1.084       .  S
C793        C794   1.404       .  A
C793        C798   1.406       .  A
C793        H809   1.084       .  S
C794        C795   1.405       .  A
C794        H810   1.083       .  S
C795        C805   1.412       .  A
C795        C796   1.413       .  A
C796        C802   1.410       .  A
C796        C797   1.414       .  A
C797        C799   1.412       .  A
C797        C798   1.412       .  A
C798        C806   1.411       .  A
C799        C808   1.400       .  A
C799        C800   1.402       .  A
C800        C801   1.397       .  A
C800        H811   1.084       .  S
C801        C802   1.404       .  A
C801        H812   1.084       .  S
C802        C803   1.400       .  A
C803        C804   1.410       .  A
C803        H813   1.084       .  S
C804        C805   1.408       .  A
C805        H814   1.084       .  S
C806        C807   1.410       .  A
C806        H815   1.084       .  S
C807        C808   1.404       .  A
C808        H816   1.085       .  S
C817        C818   1.404       .  A
C817        C822   1.406       .  A
C817        H833   1.083       .  S
C818        C819   1.406       .  A
C818        H834   1.084       .  S
C819        C829   1.408       .  A
C819        C820   1.412       .  A
C820        C826   1.410       .  A
C820        C821   1.408       .  A
C821        C823   1.409       .  A
C821        C822   1.413       .  A
C822        C830   1.410       .  A
C823        C832   1.388       .  A
C823        C824   1.400       .  A
C824        C825   1.390       .  A
C824        H835   1.084       .  S
C825        C826   1.400       .  A
C825        H836   1.084       .  S
C826        C827   1.388       .  A
C827        C828   1.402       .  A
C827        H837   1.085       .  S
C828        C829   1.410       .  A
C829        H838   1.084       .  S
C830        C831   1.409       .  A
C830        H839   1.084       .  S
C831        C832   1.405       .  A
C832        H840   1.084       .  S
C841        C842   1.400       .  A
C841        C846   1.404       .  A
C841        H857   1.084       .  S
C842        C843   1.404       .  A
C842        H858   1.083       .  S
C843        C853   1.407       .  A
C843        C844   1.414       .  A
C844        C850   1.409       .  A
C844        C845   1.409       .  A
C845        C847   1.412       .  A
C845        C846   1.411       .  A
C846        C854   1.403       .  A
C847        C856   1.398       .  A
C847        C848   1.402       .  A
C848        C849   1.395       .  A
C848        H859   1.084       .  S
C849        C850   1.403       .  A
C849        H860   1.084       .  S
C850        C851   1.395       .  A
C851        C852   1.407       .  A
C851        H861   1.085       .  S
C852        C853   1.405       .  A
C853        H862   1.084       .  S
C854        C855   1.407       .  A
C854        H863   1.084       .  S
C855        C856   1.404       .  A
C856        H864   1.085       .  S
C865        C866   1.392       .  A
C865        C870   1.402       .  A
C865        H881   1.084       .  S
C866        C867   1.401       .  A
C866        H882   1.084       .  S
C867        C877   1.395       .  A
C867        C868   1.411       .  A
C868        C874   1.411       .  A
C868        C869   1.412       .  A
C869        C871   1.413       .  A
C869        C870   1.407       .  A
C870        C878   1.391       .  A
C871        C880   1.413       .  A
C871        C872   1.406       .  A
C872        C873   1.405       .  A
C872        H883   1.083       .  S
C873        C874   1.406       .  A
C873        H884   1.083       .  S
C874        C875   1.411       .  A
C875        C876   1.412       .  A
C875        H885   1.084       .  S
C876        C877   1.407       .  A
C877        H886   1.084       .  S
C878        C879   1.409       .  A
C878        H887   1.084       .  S
C879        C880   1.410       .  A
C880        H888   1.084       .  S
C889        C890   1.403       .  A
C889        C894   1.406       .  A
C889        H905   1.083       .  S
C890        C891   1.404       .  A
C890        H906   1.083       .  S
C891        C901   1.410       .  A
C891        C892   1.414       .  A
C892        C898   1.410       .  A
C892        C893   1.414       .  A
C893        C895   1.412       .  A
C893        C894   1.412       .  A
C894        C902   1.410       .  A
C895        C904   1.401       .  A
C895        C896   1.402       .  A
C896        C897   1.396       .  A
C896        H907   1.084       .  S
C897        C898   1.403       .  A
C897        H908   1.084       .  S
C898        C899   1.398       .  A
C899        C900   1.408       .  A
C899        H909   1.085       .  S
C900        C901   1.406       .  A
C901        H910   1.084       .  S
C902        C903   1.410       .  A
C902        H911   1.084       .  S
C903        C904   1.404       .  A
C904        H912   1.085       .  S
C913        C914   1.403       .  A
C913        C918   1.404       .  A
C913        H929   1.083       .  S
C914        C915   1.405       .  A
C914        H930   1.083       .  S
C915        C925   1.410       .  A
C915        C916   1.411       .  A
C916        C922   1.410       .  A
C916        C917   1.414       .  A
C917        C919   1.410       .  A
C917        C918   1.413       .  A
C918        C926   1.410       .  A
C919        C928   1.398       .  A
C919        C920   1.403       .  A
C920        C921   1.396       .  A
C920        H931   1.084       .  S
C921        C922   1.403       .  A
C921        H932   1.084       .  S
C922        C923   1.399       .  A
C923        C924   1.408       .  A
C923        H933   1.084       .  S
C924        C925   1.411       .  A
C925        H934   1.084       .  S
C926        C927   1.407       .  A
C926        H935   1.084       .  S
C927        C928   1.409       .  A
C928        H936   1.084       .  S
C937        C938   1.397       .  A
C937        C942   1.402       .  A
C937        H953   1.084       .  S
C938        C939   1.403       .  A
C938        H954   1.084       .  S
C939        C949   1.398       .  A
C939        C940   1.410       .  A
C940        C946   1.413       .  A
C940        C941   1.411       .  A
C941        C943   1.411       .  A
C941        C942   1.411       .  A
C942        C950   1.399       .  A
C943        C952   1.403       .  A
C943        C944   1.404       .  A
C944        C945   1.400       .  A
C944        H955   1.084       .  S
C945        C946   1.404       .  A
C945        H956   1.083       .  S
C946        C947   1.406       .  A
C947        C948   1.405       .  A
C947        H957   1.084       .  S
C948        C949   1.407       .  A
C949        H958   1.085       .  S
C950        C951   1.406       .  A
C950        H959   1.085       .  S
C951        C952   1.406       .  A
C952        H960   1.084       .  S
C961        C962   1.397       .  A
C961        C966   1.402       .  A
C961        H977   1.084       .  S
C962        C963   1.402       .  A
C962        H978   1.084       .  S
C963        C973   1.402       .  A
C963        C964   1.412       .  A
C964        C970   1.412       .  A
C964        C965   1.414       .  A
C965        C967   1.413   1_655  A
C965        C966   1.411       .  A
C966        C974   1.399       .  A
C967        C976   1.409       .  A
C967        C968   1.405       .  A
C968        C969   1.403   1_455  A
C968        H979   1.084       .  S
C969        C970   1.406       .  A
C969        H980   1.083       .  S
C970        C971   1.410       .  A
C971        C972   1.411       .  A
C971        H981   1.084       .  S
C972        C973   1.405       .  A
C973        H982   1.085       .  S
C974        C975   1.404   1_655  A
C974        H983   1.085       .  S
C975        C976   1.407       .  A
C976        H984   1.084       .  S
C985        C986   1.404   1_455  A
C985        C990   1.406   1_455  A
C985       H1001   1.083       .  S
C986        C987   1.406       .  A
C986       H1002   1.084       .  S
C987        C997   1.408       .  A
C987        C988   1.411       .  A
C988        C994   1.412       .  A
C988        C989   1.412       .  A
C989        C991   1.409       .  A
C989        C990   1.413       .  A
C990        C998   1.413   1_655  A
C991       C1000   1.395       .  A
C991        C992   1.402       .  A
C992        C993   1.393       .  A
C992       H1003   1.084       .  S
C993        C994   1.400       .  A
C993       H1004   1.084       .  S
C994        C995   1.396       .  A
C995        C996   1.401       .  A
C995       H1005   1.085       .  S
C996        C997   1.411       .  A
C997       H1006   1.084       .  S
C998        C999   1.410       .  A
C998       H1007   1.084       .  S
C999       C1000   1.406   1_455  A
C1000      H1008   1.084       .  S
C1009      C1010   1.393       .  A
C1009      C1014   1.402       .  A
C1009      H1025   1.084       .  S
C1010      C1011   1.401       .  A
C1010      H1026   1.084       .  S
C1011      C1021   1.395       .  A
C1011      C1012   1.411       .  A
C1012      C1018   1.411       .  A
C1012      C1013   1.410       .  A
C1013      C1015   1.414       .  A
C1013      C1014   1.408       .  A
C1014      C1022   1.393       .  A
C1015      C1024   1.410       .  A
C1015      C1016   1.405       .  A
C1016      C1017   1.402       .  A
C1016      H1027   1.083       .  S
C1017      C1018   1.405       .  A
C1017      H1028   1.083       .  S
C1018      C1019   1.406       .  A
C1019      C1020   1.409       .  A
C1019      H1029   1.084       .  S
C1020      C1021   1.405       .  A
C1021      H1030   1.085       .  S
C1022      C1023   1.408       .  A
C1022      H1031   1.085       .  S
C1023      C1024   1.407       .  A
C1024      H1032   1.084       .  S
C1033      C1034   1.402       .  A
C1033      C1038   1.405       .  A
C1033      H1049   1.084       .  S
C1034      C1035   1.405       .  A
C1034      H1050   1.083       .  S
C1035      C1045   1.407       .  A
C1035      C1036   1.413       .  A
C1036      C1042   1.410       .  A
C1036      C1037   1.406       .  A
C1037      C1039   1.410       .  A
C1037      C1038   1.412       .  A
C1038      C1046   1.406       .  A
C1039      C1048   1.387       .  A
C1039      C1040   1.400       .  A
C1040      C1041   1.390       .  A
C1040      H1051   1.084       .  S
C1041      C1042   1.400       .  A
C1041      H1052   1.084       .  S
C1042      C1043   1.388       .  A
C1043      C1044   1.401       .  A
C1043      H1053   1.085       .  S
C1044      C1045   1.406       .  A
C1045      H1054   1.084       .  S
C1046      C1047   1.407       .  A
C1046      H1055   1.084       .  S
C1047      C1048   1.401       .  A
C1048      H1056   1.085       .  S
C1057      C1058   1.402       .  A
C1057      C1062   1.405       .  A
C1057      H1073   1.083       .  S
C1058      C1059   1.404       .  A
C1058      H1074   1.084       .  S
C1059      C1069   1.407       .  A
C1059      C1060   1.413       .  A
C1060      C1066   1.411       .  A
C1060      C1061   1.412       .  A
C1061      C1063   1.412       .  A
C1061      C1062   1.412       .  A
C1062      C1070   1.407       .  A
C1063      C1072   1.401       .  A
C1063      C1064   1.403       .  A
C1064      C1065   1.396       .  A
C1064      H1075   1.084       .  S
C1065      C1066   1.402       .  A
C1065      H1076   1.084       .  S
C1066      C1067   1.397       .  A
C1067      C1068   1.404       .  A
C1067      H1077   1.085       .  S
C1068      C1069   1.405       .  A
C1069      H1078   1.084       .  S
C1070      C1071   1.408       .  A
C1070      H1079   1.084       .  S
C1071      C1072   1.404       .  A
C1072      H1080   1.085       .  S
C1081      C1082   1.400       .  A
C1081      C1086   1.404       .  A
C1081      H1097   1.083       .  S
C1082      C1083   1.403       .  A
C1082      H1098   1.083       .  S
C1083      C1093   1.408       .  A
C1083      C1084   1.414       .  A
C1084      C1090   1.409       .  A
C1084      C1085   1.413       .  A
C1085      C1087   1.412       .  A
C1085      C1086   1.410       .  A
C1086      C1094   1.404       .  A
C1087      C1096   1.405       .  A
C1087      C1088   1.404       .  A
C1088      C1089   1.399       .  A
C1088      H1099   1.084       .  S
C1089      C1090   1.404       .  A
C1089      H1100   1.084       .  S
C1090      C1091   1.399       .  A
C1091      C1092   1.410       .  A
C1091      H1101   1.084       .  S
C1092      C1093   1.406       .  A
C1093      H1102   1.084       .  S
C1094      C1095   1.407       .  A
C1094      H1103   1.084       .  S
C1095      C1096   1.410       .  A
C1096      H1104   1.085       .  S
C1105      C1106   1.404       .  A
C1105      C1110   1.406       .  A
C1105      H1121   1.083       .  S
C1106      C1107   1.406       .  A
C1106      H1122   1.083       .  S
C1107      C1117   1.410       .  A
C1107      C1108   1.412       .  A
C1108      C1114   1.409       .  A
C1108      C1109   1.410       .  A
C1109      C1111   1.410       .  A
C1109      C1110   1.412       .  A
C1110      C1118   1.411       .  A
C1111      C1120   1.392       .  A
C1111      C1112   1.401       .  A
C1112      C1113   1.391       .  A
C1112      H1123   1.084       .  S
C1113      C1114   1.399       .  A
C1113      H1124   1.081       .  S
C1114      C1115   1.391       .  A
C1115      C1116   1.404       .  A
C1115      H1125   1.085       .  S
C1116      C1117   1.409       .  A
C1117      H1126   1.084       .  S
C1118      C1119   1.410       .  A
C1118      H1127   1.084       .  S
C1119      C1120   1.405       .  A
C1120      H1128   1.084       .  S
C1129      C1130   1.391       .  A
C1129      C1134   1.400       .  A
C1129      H1145   1.084       .  S
C1130      C1131   1.400       .  A
C1130      H1146   1.081       .  S
C1131      C1141   1.394       .  A
C1131      C1132   1.410       .  A
C1132      C1138   1.411       .  A
C1132      C1133   1.412       .  A
C1133      C1135   1.413       .  A
C1133      C1134   1.408       .  A
C1134      C1142   1.390       .  A
C1135      C1144   1.414       .  A
C1135      C1136   1.406       .  A
C1136      C1137   1.406       .  A
C1136      H1147   1.083       .  S
C1137      C1138   1.407       .  A
C1137      H1148   1.083       .  S
C1138      C1139   1.412       .  A
C1139      C1140   1.412       .  A
C1139      H1149   1.084       .  S
C1140      C1141   1.405       .  A
C1141      H1150   1.084       .  S
C1142      C1143   1.407       .  A
C1142      H1151   1.084       .  S
C1143      C1144   1.411       .  A
C1144      H1152   1.084       .  S
C1153      C1154   1.402       .  A
C1153      C1158   1.404       .  A
C1153      H1169   1.083       .  S
C1154      C1155   1.404       .  A
C1154      H1170   1.083       .  S
C1155      C1165   1.406       .  A
C1155      C1156   1.410       .  A
C1156      C1162   1.410       .  A
C1156      C1157   1.412       .  A
C1157      C1159   1.408       .  A
C1157      C1158   1.413       .  A
C1158      C1166   1.410       .  A
C1159      C1168   1.396       .  A
C1159      C1160   1.402       .  A
C1160      C1161   1.394       .  A
C1160      H1171   1.084       .  S
C1161      C1162   1.400       .  A
C1161      H1172   1.078       .  S
C1162      C1163   1.398       .  A
C1163      C1164   1.406       .  A
C1163      H1173   1.084       .  S
C1164      C1165   1.409       .  A
C1165      H1174   1.084       .  S
C1166      C1167   1.407       .  A
C1166      H1175   1.084       .  S
C1167      C1168   1.410       .  A
C1168      H1176   1.084       .  S
C1177      C1178   1.393       .  A
C1177      C1182   1.401       .  A
C1177      H1193   1.084       .  S
C1178      C1179   1.399       .  A
C1178      H1194   1.076       .  S
C1179      C1189   1.396       .  A
C1179      C1180   1.409       .  A
C1180      C1186   1.411       .  A
C1180      C1181   1.411       .  A
C1181      C1183   1.412       .  A
C1181      C1182   1.410       .  A
C1182      C1190   1.395       .  A
C1183      C1192   1.409       .  A
C1183      C1184   1.405       .  A
C1184      C1185   1.403       .  A
C1184      H1195   1.083       .  S
C1185      C1186   1.405       .  A
C1185      H1196   1.083       .  S
C1186      C1187   1.408       .  A
C1187      C1188   1.409       .  A
C1187      H1197   1.084       .  S
C1188      C1189   1.404       .  A
C1189      H1198   1.084       .  S
C1190      C1191   1.406       .  A
C1190      H1199   1.085       .  S
C1191      C1192   1.409       .  A
C1192      H1200   1.084       .  S
C1201      C1202   1.395       .  A
C1201      C1206   1.402       .  A
C1201      H1217   1.084       .  S
C1202      C1203   1.402       .  A
C1202      H1218   1.084       .  S
C1203      C1213   1.398       .  A
C1203      C1204   1.410       .  A
C1204      C1210   1.412       .  A
C1204      C1205   1.415       .  A
C1205      C1207   1.412       .  A
C1205      C1206   1.409       .  A
C1206      C1214   1.397       .  A
C1207      C1216   1.415       .  A
C1207      C1208   1.407       .  A
C1208      C1209   1.406       .  A
C1208      H1219   1.083       .  S
C1209      C1210   1.407       .  A
C1209      H1220   1.083       .  S
C1210      C1211   1.414       .  A
C1211      C1212   1.413       .  A
C1211      H1221   1.084       .  S
C1212      C1213   1.408       .  A
C1213      H1222   1.084       .  S
C1214      C1215   1.409       .  A
C1214      H1223   1.084       .  S
C1215      C1216   1.413       .  A
C1216      H1224   1.084       .  S
C1225      C1226   1.396       .  A
C1225      C1230   1.403       .  A
C1225      H1241   1.084       .  S
C1226      C1227   1.402       .  A
C1226      H1242   1.084       .  S
C1227      C1237   1.398       .  A
C1227      C1228   1.413       .  A
C1228      C1234   1.411       .  A
C1228      C1229   1.410       .  A
C1229      C1231   1.414       .  A
C1229      C1230   1.409       .  A
C1230      C1238   1.396       .  A
C1231      C1240   1.408       .  A
C1231      C1232   1.404       .  A
C1232      C1233   1.401       .  A
C1232      H1243   1.083       .  S
C1233      C1234   1.404       .  A
C1233      H1244   1.083       .  S
C1234      C1235   1.404       .  A
C1235      C1236   1.406       .  A
C1235      H1245   1.084       .  S
C1236      C1237   1.402       .  A
C1237      H1246   1.085       .  S
C1238      C1239   1.407       .  A
C1238      H1247   1.085       .  S
C1239      C1240   1.405       .  A
C1240      H1248   1.084       .  S
C1249      C1250   1.396       .  A
C1249      C1254   1.403       .  A
C1249      H1265   1.084       .  S
C1250      C1251   1.401       .  A
C1250      H1266   1.084       .  S
C1251      C1261   1.397       .  A
C1251      C1252   1.412       .  A
C1252      C1258   1.411       .  A
C1252      C1253   1.410       .  A
C1253      C1255   1.414   1_655  A
C1253      C1254   1.409       .  A
C1254      C1262   1.396       .  A
C1255      C1264   1.408       .  A
C1255      C1256   1.404       .  A
C1256      C1257   1.400   1_455  A
C1256      H1267   1.083       .  S
C1257      C1258   1.404       .  A
C1257      H1268   1.084       .  S
C1258      C1259   1.402       .  A
C1259      C1260   1.407       .  A
C1259      H1269   1.084       .  S
C1260      C1261   1.404       .  A
C1261      H1270   1.085       .  S
C1262      C1263   1.409   1_655  A
C1262      H1271   1.085       .  S
C1263      C1264   1.405       .  A
C1264      H1272   1.084       .  S
C1273      C1274   1.405   1_455  A
C1273      C1278   1.406       .  A
C1273      H1289   1.083       .  S
C1274      C1275   1.407       .  A
C1274      H1290   1.084       .  S
C1275      C1285   1.410       .  A
C1275      C1276   1.410       .  A
C1276      C1282   1.411       .  A
C1276      C1277   1.410       .  A
C1277      C1279   1.408       .  A
C1277      C1278   1.413   1_655  A
C1278      C1286   1.414       .  A
C1279      C1288   1.389       .  A
C1279      C1280   1.401       .  A
C1280      C1281   1.390       .  A
C1280      H1291   1.084       .  S
C1281      C1282   1.399       .  A
C1281      H1292   1.084       .  S
C1282      C1283   1.391       .  A
C1283      C1284   1.403       .  A
C1283      H1293   1.084       .  S
C1284      C1285   1.413       .  A
C1285      H1294   1.084       .  S
C1286      C1287   1.411       .  A
C1286      H1295   1.084       .  S
C1287      C1288   1.406   1_455  A
C1288      H1296   1.084       .  S
C1297      C1298   1.396       .  A
C1297      C1302   1.403       .  A
C1297      H1313   1.084       .  S
C1298      C1299   1.403       .  A
C1298      H1314   1.084       .  S
C1299      C1309   1.398       .  A
C1299      C1300   1.411       .  A
C1300      C1306   1.413       .  A
C1300      C1301   1.411       .  A
C1301      C1303   1.413       .  A
C1301      C1302   1.411       .  A
C1302      C1310   1.398       .  A
C1303      C1312   1.406       .  A
C1303      C1304   1.404       .  A
C1304      C1305   1.401       .  A
C1304      H1315   1.083       .  S
C1305      C1306   1.404       .  A
C1305      H1316   1.083       .  S
C1306      C1307   1.406       .  A
C1307      C1308   1.406       .  A
C1307      H1317   1.084       .  S
C1308      C1309   1.406       .  A
C1309      H1318   1.085       .  S
C1310      C1311   1.406       .  A
C1310      H1319   1.085       .  S
C1311      C1312   1.406       .  A
C1312      H1320   1.084       .  S
C1321      C1322   1.395       .  A
C1321      C1326   1.402       .  A
C1321      H1337   1.084       .  S
C1322      C1323   1.402       .  A
C1322      H1338   1.084       .  S
C1323      C1333   1.394       .  A
C1323      C1324   1.409       .  A
C1324      C1330   1.413       .  A
C1324      C1325   1.411       .  A
C1325      C1327   1.411       .  A
C1325      C1326   1.411       .  A
C1326      C1334   1.399       .  A
C1327      C1336   1.408       .  A
C1327      C1328   1.406       .  A
C1328      C1329   1.402       .  A
C1328      H1339   1.083       .  S
C1329      C1330   1.404       .  A
C1329      H1340   1.084       .  S
C1330      C1331   1.407       .  A
C1331      C1332   1.407       .  A
C1331      H1341   1.084       .  S
C1332      C1333   1.407       .  A
C1333      H1342   1.085       .  S
C1334      C1335   1.407       .  A
C1334      H1343   1.084       .  S
C1335      C1336   1.410       .  A
C1336      H1344   1.084       .  S
C1345      C1346   1.405       .  A
C1345      C1350   1.406       .  A
C1345      H1361   1.083       .  S
C1346      C1347   1.406       .  A
C1346      H1362   1.083       .  S
C1347      C1357   1.415       .  A
C1347      C1348   1.414       .  A
C1348      C1354   1.407       .  A
C1348      C1349   1.413       .  A
C1349      C1351   1.411       .  A
C1349      C1350   1.411       .  A
C1350      C1358   1.410       .  A
C1351      C1360   1.395       .  A
C1351      C1352   1.401       .  A
C1352      C1353   1.394       .  A
C1352      H1363   1.084       .  S
C1353      C1354   1.403       .  A
C1353      H1364   1.084       .  S
C1354      C1355   1.394       .  A
C1355      C1356   1.412       .  A
C1355      H1365   1.084       .  S
C1356      C1357   1.410       .  A
C1357      H1366   1.084       .  S
C1358      C1359   1.411       .  A
C1358      H1367   1.084       .  S
C1359      C1360   1.407       .  A
C1360      H1368   1.084       .  S
C1369      C1370   1.402       .  A
C1369      C1374   1.405       .  A
C1369      H1385   1.083       .  S
C1370      C1371   1.404       .  A
C1370      H1386   1.084       .  S
C1371      C1381   1.405       .  A
C1371      C1372   1.410       .  A
C1372      C1378   1.412       .  A
C1372      C1373   1.412       .  A
C1373      C1375   1.408       .  A
C1373      C1374   1.414       .  A
C1374      C1382   1.412       .  A
C1375      C1384   1.395       .  A
C1375      C1376   1.403       .  A
C1376      C1377   1.395       .  A
C1376      H1387   1.084       .  S
C1377      C1378   1.402       .  A
C1377      H1388   1.084       .  S
C1378      C1379   1.399       .  A
C1379      C1380   1.408       .  A
C1379      H1389   1.085       .  S
C1380      C1381   1.408       .  A
C1381      H1390   1.084       .  S
C1382      C1383   1.410       .  A
C1382      H1391   1.084       .  S
C1383      C1384   1.410       .  A
C1384      H1392   1.084       .  S
C1393      C1394   1.404       .  A
C1393      C1398   1.406       .  A
C1393      H1409   1.083       .  S
C1394      C1395   1.405       .  A
C1394      H1410   1.083       .  S
C1395      C1405   1.411       .  A
C1395      C1396   1.414       .  A
C1396      C1402   1.407       .  A
C1396      C1397   1.410       .  A
C1397      C1399   1.411       .  A
C1397      C1398   1.411       .  A
C1398      C1406   1.410       .  A
C1399      C1408   1.393       .  A
C1399      C1400   1.401       .  A
C1400      C1401   1.391       .  A
C1400      H1411   1.084       .  S
C1401      C1402   1.402       .  A
C1401      H1412   1.084       .  S
C1402      C1403   1.389       .  A
C1403      C1404   1.409       .  A
C1403      H1413   1.084       .  S
C1404      C1405   1.408       .  A
C1405      H1414   1.084       .  S
C1406      C1407   1.411       .  A
C1406      H1415   1.084       .  S
C1407      C1408   1.406       .  A
C1408      H1416   1.084       .  S
C1417      C1418   1.401       .  A
C1417      C1422   1.404       .  A
C1417      H1433   1.083       .  S
C1418      C1419   1.404       .  A
C1418      H1434   1.083       .  S
C1419      C1429   1.409       .  A
C1419      C1420   1.413       .  A
C1420      C1426   1.409       .  A
C1420      C1421   1.410       .  A
C1421      C1423   1.411       .  A
C1421      C1422   1.412       .  A
C1422      C1430   1.405       .  A
C1423      C1432   1.396       .  A
C1423      C1424   1.402       .  A
C1424      C1425   1.395       .  A
C1424      H1435   1.084       .  S
C1425      C1426   1.403       .  A
C1425      H1436   1.084       .  S
C1426      C1427   1.395       .  A
C1427      C1428   1.410       .  A
C1427      H1437   1.084       .  S
C1428      C1429   1.407       .  A
C1429      H1438   1.084       .  S
C1430      C1431   1.406       .  A
C1430      H1439   1.084       .  S
C1431      C1432   1.407       .  A
C1432      H1440   1.085       .  S
C1441      C1442   1.401       .  A
C1441      C1446   1.404       .  A
C1441      H1457   1.083       .  S
C1442      C1443   1.404       .  A
C1442      H1458   1.083       .  S
C1443      C1453   1.405       .  A
C1443      C1444   1.412       .  A
C1444      C1450   1.410       .  A
C1444      C1445   1.408       .  A
C1445      C1447   1.410       .  A
C1445      C1446   1.412       .  A
C1446      C1454   1.406       .  A
C1447      C1456   1.392       .  A
C1447      C1448   1.400       .  A
C1448      C1449   1.392       .  A
C1448      H1459   1.082       .  S
C1449      C1450   1.401       .  A
C1449      H1460   1.084       .  S
C1450      C1451   1.393       .  A
C1451      C1452   1.405       .  A
C1451      H1461   1.084       .  S
C1452      C1453   1.407       .  A
C1453      H1462   1.084       .  S
C1454      C1455   1.407       .  A
C1454      H1463   1.084       .  S
C1455      C1456   1.404       .  A
C1456      H1464   1.084       .  S
C1465      C1466   1.394       .  A
C1465      C1470   1.401       .  A
C1465      H1481   1.080       .  S
C1466      C1467   1.401       .  A
C1466      H1482   1.084       .  S
C1467      C1477   1.395       .  A
C1467      C1468   1.409       .  A
C1468      C1474   1.414       .  A
C1468      C1469   1.415       .  A
C1469      C1471   1.411       .  A
C1469      C1470   1.412       .  A
C1470      C1478   1.401       .  A
C1471      C1480   1.412       .  A
C1471      C1472   1.407       .  A
C1472      C1473   1.406       .  A
C1472      H1483   1.084       .  S
C1473      C1474   1.406       .  A
C1473      H1484   1.083       .  S
C1474      C1475   1.416       .  A
C1475      C1476   1.410       .  A
C1475      H1485   1.084       .  S
C1476      C1477   1.404       .  A
C1477      H1486   1.085       .  S
C1478      C1479   1.403       .  A
C1478      H1487   1.084       .  S
C1479      C1480   1.411       .  A
C1480      H1488   1.084       .  S
C1489      C1490   1.404       .  A
C1489      C1494   1.406       .  A
C1489      H1505   1.083       .  S
C1490      C1491   1.405       .  A
C1490      H1506   1.083       .  S
C1491      C1501   1.411       .  A
C1491      C1492   1.412       .  A
C1492      C1498   1.409       .  A
C1492      C1493   1.414       .  A
C1493      C1495   1.410       .  A
C1493      C1494   1.412       .  A
C1494      C1502   1.412       .  A
C1495      C1504   1.398       .  A
C1495      C1496   1.402       .  A
C1496      C1497   1.395       .  A
C1496      H1507   1.082       .  S
C1497      C1498   1.402       .  A
C1497      H1508   1.084       .  S
C1498      C1499   1.396       .  A
C1499      C1500   1.409       .  A
C1499      H1509   1.084       .  S
C1500      C1501   1.410       .  A
C1501      H1510   1.084       .  S
C1502      C1503   1.411       .  A
C1502      H1511   1.084       .  S
C1503      C1504   1.408       .  A
C1504      H1512   1.084       .  S
C1513      C1514   1.402       .  A
C1513      C1518   1.405       .  A
C1513      H1529   1.084       .  S
C1514      C1515   1.405       .  A
C1514      H1530   1.083       .  S
C1515      C1525   1.409       .  A
C1515      C1516   1.413       .  A
C1516      C1522   1.409       .  A
C1516      C1517   1.408       .  A
C1517      C1519   1.411       .  A
C1517      C1518   1.411       .  A
C1518      C1526   1.405       .  A
C1519      C1528   1.393       .  A
C1519      C1520   1.400       .  A
C1520      C1521   1.392       .  A
C1520      H1531   1.082       .  S
C1521      C1522   1.402       .  A
C1521      H1532   1.084       .  S
C1522      C1523   1.392       .  A
C1523      C1524   1.406       .  A
C1523      H1533   1.085       .  S
C1524      C1525   1.407       .  A
C1525      H1534   1.084       .  S
C1526      C1527   1.407       .  A
C1526      H1535   1.084       .  S
C1527      C1528   1.403       .  A
C1528      H1536   1.085       .  S
C1537      C1538   1.395       .  A
C1537      C1542   1.402       .  A
C1537      H1553   1.084       .  S
C1538      C1539   1.401       .  A
C1538      H1554   1.083       .  S
C1539      C1549   1.395       .  A
C1539      C1540   1.411       .  A
C1540      C1546   1.412       .  A
C1540      C1541   1.410       .  A
C1541      C1543   1.413       .  A
C1541      C1542   1.411       .  A
C1542      C1550   1.396       .  A
C1543      C1552   1.407       .  A
C1543      C1544   1.404       .  A
C1544      C1545   1.402       .  A
C1544      H1555   1.083       .  S
C1545      C1546   1.405       .  A
C1545      H1556   1.084       .  S
C1546      C1547   1.407       .  A
C1547      C1548   1.408       .  A
C1547      H1557   1.084       .  S
C1548      C1549   1.404       .  A
C1549      H1558   1.085       .  S
C1550      C1551   1.406       .  A
C1550      H1559   1.085       .  S
C1551      C1552   1.406       .  A
C1552      H1560   1.084       .  S
C1561      C1562   1.391       .  A
C1561      C1566   1.400       .  A
C1561      H1577   1.083       .  S
C1562      C1563   1.401       .  A
C1562      H1578   1.084       .  S
C1563      C1573   1.391       .  A
C1563      C1564   1.408       .  A
C1564      C1570   1.413       .  A
C1564      C1565   1.411       .  A
C1565      C1567   1.411       .  A
C1565      C1566   1.410       .  A
C1566      C1574   1.392       .  A
C1567      C1576   1.413       .  A
C1567      C1568   1.407       .  A
C1568      C1569   1.406       .  A
C1568      H1579   1.083       .  S
C1569      C1570   1.406       .  A
C1569      H1580   1.083       .  S
C1570      C1571   1.414       .  A
C1571      C1572   1.409       .  A
C1571      H1581   1.084       .  S
C1572      C1573   1.408       .  A
C1573      H1582   1.084       .  S
C1574      C1575   1.406       .  A
C1574      H1583   1.084       .  S
C1575      C1576   1.413       .  A
C1576      H1584   1.084       .  S
C1585      C1586   1.396       .  A
C1585      C1590   1.402       .  A
C1585      H1601   1.084       .  S
C1586      C1587   1.403       .  A
C1586      H1602   1.084       .  S
C1587      C1597   1.399       .  A
C1587      C1588   1.410       .  A
C1588      C1594   1.413       .  A
C1588      C1589   1.412       .  A
C1589      C1591   1.412       .  A
C1589      C1590   1.411       .  A
C1590      C1598   1.397       .  A
C1591      C1600   1.407       .  A
C1591      C1592   1.404       .  A
C1592      C1593   1.402       .  A
C1592      H1603   1.084       .  S
C1593      C1594   1.404       .  A
C1593      H1604   1.083       .  S
C1594      C1595   1.408       .  A
C1595      C1596   1.406       .  A
C1595      H1605   1.084       .  S
C1596      C1597   1.408       .  A
C1597      H1606   1.085       .  S
C1598      C1599   1.405       .  A
C1598      H1607   1.085       .  S
C1599      C1600   1.408       .  A
C1600      H1608   1.084       .  S
C1609      C1610   1.394       .  A
C1609      C1614   1.402       .  A
C1609      H1625   1.084       .  S
C1610      C1611   1.402       .  A
C1610      H1626   1.084       .  S
C1611      C1621   1.398       .  A
C1611      C1612   1.411       .  A
C1612      C1618   1.411       .  A
C1612      C1613   1.413       .  A
C1613      C1615   1.413       .  A
C1613      C1614   1.409       .  A
C1614      C1622   1.394       .  A
C1615      C1624   1.412       .  A
C1615      C1616   1.405       .  A
C1616      C1617   1.405       .  A
C1616      H1627   1.083       .  S
C1617      C1618   1.406       .  A
C1617      H1628   1.083       .  S
C1618      C1619   1.411       .  A
C1619      C1620   1.412       .  A
C1619      H1629   1.084       .  S
C1620      C1621   1.409       .  A
C1621      H1630   1.084       .  S
C1622      C1623   1.408       .  A
C1622      H1631   1.084       .  S
C1623      C1624   1.411       .  A
C1624      H1632   1.084       .  S
C1633      C1634   1.394       .  A
C1633      C1638   1.402       .  A
C1633      H1649   1.084       .  S
C1634      C1635   1.402       .  A
C1634      H1650   1.084       .  S
C1635      C1645   1.397       .  A
C1635      C1636   1.412       .  A
C1636      C1642   1.411       .  A
C1636      C1637   1.409       .  A
C1637      C1639   1.414       .  A
C1637      C1638   1.409       .  A
C1638      C1646   1.393       .  A
C1639      C1648   1.406       .  A
C1639      C1640   1.403       .  A
C1640      C1641   1.401       .  A
C1640      H1651   1.084       .  S
C1641      C1642   1.405       .  A
C1641      H1652   1.083       .  S
C1642      C1643   1.405       .  A
C1643      C1644   1.409       .  A
C1643      H1653   1.084       .  S
C1644      C1645   1.405       .  A
C1645      H1654   1.085       .  S
C1646      C1647   1.407       .  A
C1646      H1655   1.085       .  S
C1647      C1648   1.405       .  A
C1648      H1656   1.084       .  S
C1657      C1658   1.403       .  A
C1657      C1662   1.405       .  A
C1657      H1673   1.083       .  S
C1658      C1659   1.404       .  A
C1658      H1674   1.083       .  S
C1659      C1669   1.411       .  A
C1659      C1660   1.414       .  A
C1660      C1666   1.407       .  A
C1660      C1661   1.411       .  A
C1661      C1663   1.411       .  A
C1661      C1662   1.411       .  A
C1662      C1670   1.408       .  A
C1663      C1672   1.395       .  A
C1663      C1664   1.402       .  A
C1664      C1665   1.393       .  A
C1664      H1675   1.084       .  S
C1665      C1666   1.403       .  A
C1665      H1676   1.084       .  S
C1666      C1667   1.392       .  A
C1667      C1668   1.410       .  A
C1667      H1677   1.084       .  S
C1668      C1669   1.408       .  A
C1669      H1678   1.084       .  S
C1670      C1671   1.409       .  A
C1670      H1679   1.084       .  S
C1671      C1672   1.408       .  A
C1672      H1680   1.084       .  S
C1681      C1682   1.394       .  A
C1681      C1686   1.402       .  A
C1681      H1697   1.083       .  S
C1682      C1683   1.403       .  A
C1682      H1698   1.084       .  S
C1683      C1693   1.394       .  A
C1683      C1684   1.409       .  A
C1684      C1690   1.413       .  A
C1684      C1685   1.410       .  A
C1685      C1687   1.411       .  A
C1685      C1686   1.411       .  A
C1686      C1694   1.395       .  A
C1687      C1696   1.405       .  A
C1687      C1688   1.404       .  A
C1688      C1689   1.401       .  A
C1688      H1699   1.084       .  S
C1689      C1690   1.404       .  A
C1689      H1700   1.083       .  S
C1690      C1691   1.409       .  A
C1691      C1692   1.407       .  A
C1691      H1701   1.084       .  S
C1692      C1693   1.409       .  A
C1693      H1702   1.084       .  S
C1694      C1695   1.407       .  A
C1694      H1703   1.084       .  S
C1695      C1696   1.407       .  A
C1696      H1704   1.084       .  S
C1705      C1706   1.405       .  A
C1705      C1710   1.406       .  A
C1705      H1721   1.084       .  S
C1706      C1707   1.406       .  A
C1706      H1722   1.083       .  S
C1707      C1717   1.413       .  A
C1707      C1708   1.413       .  A
C1708      C1714   1.410       .  A
C1708      C1709   1.413       .  A
C1709      C1711   1.411       .  A
C1709      C1710   1.412       .  A
C1710      C1718   1.411       .  A
C1711      C1720   1.396       .  A
C1711      C1712   1.401       .  A
C1712      C1713   1.394       .  A
C1712      H1723   1.084       .  S
C1713      C1714   1.401       .  A
C1713      H1724   1.082       .  S
C1714      C1715   1.397       .  A
C1715      C1716   1.405       .  A
C1715      H1725   1.084       .  S
C1716      C1717   1.411       .  A
C1717      H1726   1.084       .  S
C1718      C1719   1.410       .  A
C1718      H1727   1.084       .  S
C1719      C1720   1.404       .  A
C1720      H1728   1.085       .  S
C1729      C1730   1.394       .  A
C1729      C1734   1.402       .  A
C1729      H1745   1.084       .  S
C1730      C1731   1.402       .  A
C1730      H1746   1.084       .  S
C1731      C1741   1.396       .  A
C1731      C1732   1.410       .  A
C1732      C1738   1.412       .  A
C1732      C1733   1.413       .  A
C1733      C1735   1.413       .  A
C1733      C1734   1.409       .  A
C1734      C1742   1.395       .  A
C1735      C1744   1.413       .  A
C1735      C1736   1.405       .  A
C1736      C1737   1.405       .  A
C1736      H1747   1.083       .  S
C1737      C1738   1.406       .  A
C1737      H1748   1.083       .  S
C1738      C1739   1.412       .  A
C1739      C1740   1.412       .  A
C1739      H1749   1.084       .  S
C1740      C1741   1.409       .  A
C1741      H1750   1.084       .  S
C1742      C1743   1.409       .  A
C1742      H1751   1.084       .  S
C1743      C1744   1.410       .  A
C1744      H1752   1.084       .  S
C1753      C1754   1.402       .  A
C1753      C1758   1.404       .  A
C1753      H1769   1.084       .  S
C1754      C1755   1.404       .  A
C1754      H1770   1.083       .  S
C1755      C1765   1.408       .  A
C1755      C1756   1.413       .  A
C1756      C1762   1.410       .  A
C1756      C1757   1.410       .  A
C1757      C1759   1.411       .  A
C1757      C1758   1.412       .  A
C1758      C1766   1.405       .  A
C1759      C1768   1.395       .  A
C1759      C1760   1.401       .  A
C1760      C1761   1.395       .  A
C1760      H1771   1.083       .  S
C1761      C1762   1.403       .  A
C1761      H1772   1.084       .  S
C1762      C1763   1.396       .  A
C1763      C1764   1.408       .  A
C1763      H1773   1.085       .  S
C1764      C1765   1.406       .  A
C1765      H1774   1.084       .  S
C1766      C1767   1.406       .  A
C1766      H1775   1.084       .  S
C1767      C1768   1.403       .  A
C1768      H1776   1.085       .  S
C1777      C1778   1.393       .  A
C1777      C1782   1.402       .  A
C1777      H1793   1.084       .  S
C1778      C1779   1.401       .  A
C1778      H1794   1.084       .  S
C1779      C1789   1.395       .  A
C1779      C1780   1.411       .  A
C1780      C1786   1.411       .  A
C1780      C1781   1.410       .  A
C1781      C1783   1.413       .  A
C1781      C1782   1.408       .  A
C1782      C1790   1.394       .  A
C1783      C1792   1.410       .  A
C1783      C1784   1.405       .  A
C1784      C1785   1.403       .  A
C1784      H1795   1.083       .  S
C1785      C1786   1.405       .  A
C1785      H1796   1.084       .  S
C1786      C1787   1.406       .  A
C1787      C1788   1.410       .  A
C1787      H1797   1.084       .  S
C1788      C1789   1.406       .  A
C1789      H1798   1.084       .  S
C1790      C1791   1.409       .  A
C1790      H1799   1.084       .  S
C1791      C1792   1.408       .  A
C1792      H1800   1.084       .  S
C1801      C1802   1.395       .  A
C1801      C1806   1.402       .  A
C1801      H1817   1.084       .  S
C1802      C1803   1.402       .  A
C1802      H1818   1.083       .  S
C1803      C1813   1.396       .  A
C1803      C1804   1.412       .  A
C1804      C1810   1.412       .  A
C1804      C1805   1.410       .  A
C1805      C1807   1.413       .  A
C1805      C1806   1.411       .  A
C1806      C1814   1.395       .  A
C1807      C1816   1.406       .  A
C1807      C1808   1.404       .  A
C1808      C1809   1.401       .  A
C1808      H1819   1.083       .  S
C1809      C1810   1.404       .  A
C1809      H1820   1.083       .  S
C1810      C1811   1.405       .  A
C1811      C1812   1.406       .  A
C1811      H1821   1.084       .  S
C1812      C1813   1.403       .  A
C1813      H1822   1.085       .  S
C1814      C1815   1.404       .  A
C1814      H1823   1.085       .  S
C1815      C1816   1.405       .  A
C1816      H1824   1.084       .  S
C1825      C1826   1.397       .  A
C1825      C1830   1.402       .  A
C1825      H1841   1.084       .  S
C1826      C1827   1.404       .  A
C1826      H1842   1.084       .  S
C1827      C1837   1.399       .  A
C1827      C1828   1.410       .  A
C1828      C1834   1.414       .  A
C1828      C1829   1.412       .  A
C1829      C1831   1.411       .  A
C1829      C1830   1.412       .  A
C1830      C1838   1.400       .  A
C1831      C1840   1.405       .  A
C1831      C1832   1.404       .  A
C1832      C1833   1.401       .  A
C1832      H1843   1.083       .  S
C1833      C1834   1.404       .  A
C1833      H1844   1.083       .  S
C1834      C1835   1.408       .  A
C1835      C1836   1.405       .  A
C1835      H1845   1.084       .  S
C1836      C1837   1.409       .  A
C1837      H1846   1.085       .  S
C1838      C1839   1.406       .  A
C1838      H1847   1.085       .  S
C1839      C1840   1.409       .  A
C1840      H1848   1.084       .  S
C1849      C1850   1.396       .  A
C1849      C1854   1.402       .  A
C1849      H1865   1.084       .  S
C1850      C1851   1.402       .  A
C1850      H1866   1.084       .  S
C1851      C1861   1.396       .  A
C1851      C1852   1.409       .  A
C1852      C1858   1.413       .  A
C1852      C1853   1.414       .  A
C1853      C1855   1.411       .  A
C1853      C1854   1.411       .  A
C1854      C1862   1.401       .  A
C1855      C1864   1.410       .  A
C1855      C1856   1.406       .  A
C1856      C1857   1.404       .  A
C1856      H1867   1.083       .  S
C1857      C1858   1.405       .  A
C1857      H1868   1.084       .  S
C1858      C1859   1.411       .  A
C1859      C1860   1.409       .  A
C1859      H1869   1.084       .  S
C1860      C1861   1.407       .  A
C1861      H1870   1.084       .  S
C1862      C1863   1.408       .  A
C1862      H1871   1.084       .  S
C1863      C1864   1.413       .  A
C1864      H1872   1.084       .  S
C1873      C1874   1.394       .  A
C1873      C1878   1.403       .  A
C1873      H1889   1.084       .  S
C1874      C1875   1.401       .  A
C1874      H1890   1.084       .  S
C1875      C1885   1.396       .  A
C1875      C1876   1.412       .  A
C1876      C1882   1.410       .  A
C1876      C1877   1.411       .  A
C1877      C1879   1.414       .  A
C1877      C1878   1.408       .  A
C1878      C1886   1.394       .  A
C1879      C1888   1.412       .  A
C1879      C1880   1.405       .  A
C1880      C1881   1.403       .  A
C1880      H1891   1.083       .  S
C1881      C1882   1.405       .  A
C1881      H1892   1.084       .  S
C1882      C1883   1.405       .  A
C1883      C1884   1.410       .  A
C1883      H1893   1.084       .  S
C1884      C1885   1.403       .  A
C1885      H1894   1.085       .  S
C1886      C1887   1.409       .  A
C1886      H1895   1.084       .  S
C1887      C1888   1.409       .  A
C1888      H1896   1.084       .  S
C1897      C1898   1.395   1_655  A
C1897      C1902   1.402       .  A
C1897      H1913   1.084       .  S
C1898      C1899   1.402       .  A
C1898      H1914   1.084       .  S
C1899      C1909   1.396       .  A
C1899      C1900   1.410   1_455  A
C1900      C1906   1.413       .  A
C1900      C1901   1.414       .  A
C1901      C1903   1.412       .  A
C1901      C1902   1.411       .  A
C1902      C1910   1.399       .  A
C1903      C1912   1.413       .  A
C1903      C1904   1.407       .  A
C1904      C1905   1.404       .  A
C1904      H1915   1.083       .  S
C1905      C1906   1.405       .  A
C1905      H1916   1.084       .  S
C1906      C1907   1.411   1_655  A
C1907      C1908   1.408       .  A
C1907      H1917   1.084       .  S
C1908      C1909   1.407       .  A
C1909      H1918   1.084       .  S
C1910      C1911   1.406       .  A
C1910      H1919   1.084       .  S
C1911      C1912   1.412       .  A
C1912      H1920   1.084       .  S
C1921      C1922   1.403       .  A
C1921      C1926   1.405       .  A
C1921      H1937   1.084       .  S
C1922      C1923   1.405       .  A
C1922      H1938   1.083       .  S
C1923      C1933   1.409       .  A
C1923      C1924   1.413       .  A
C1924      C1930   1.410       .  A
C1924      C1925   1.411       .  A
C1925      C1927   1.411       .  A
C1925      C1926   1.412       .  A
C1926      C1934   1.408       .  A
C1927      C1936   1.395       .  A
C1927      C1928   1.401       .  A
C1928      C1929   1.394       .  A
C1928      H1939   1.084       .  S
C1929      C1930   1.402       .  A
C1929      H1940   1.084       .  S
C1930      C1931   1.395       .  A
C1931      C1932   1.405       .  A
C1931      H1941   1.085       .  S
C1932      C1933   1.408       .  A
C1933      H1942   1.084       .  S
C1934      C1935   1.409       .  A
C1934      H1943   1.084       .  S
C1935      C1936   1.404       .  A
C1936      H1944   1.085       .  S
C1945      C1946   1.403       .  A
C1945      C1950   1.404       .  A
C1945      H1961   1.084       .  S
C1946      C1947   1.405       .  A
C1946      H1962   1.083       .  S
C1947      C1957   1.411   1_655  A
C1947      C1948   1.412       .  A
C1948      C1954   1.409   1_655  A
C1948      C1949   1.410       .  A
C1949      C1951   1.410       .  A
C1949      C1950   1.412       .  A
C1950      C1958   1.407       .  A
C1951      C1960   1.393       .  A
C1951      C1952   1.401       .  A
C1952      C1953   1.393   1_655  A
C1952      H1963   1.084   1_655  S
C1953      C1954   1.402       .  A
C1953      H1964   1.084       .  S
C1954      C1955   1.394       .  A
C1955      C1956   1.409       .  A
C1955      H1965   1.084       .  S
C1956      C1957   1.409       .  A
C1957      H1966   1.084       .  S
C1958      C1959   1.408       .  A
C1958      H1967   1.084       .  S
C1959      C1960   1.408       .  A
C1960      H1968   1.084       .  S
C1969      C1970   1.406       .  A
C1969      C1974   1.406       .  A
C1969      H1985   1.083       .  S
C1970      C1971   1.407       .  A
C1970      H1986   1.083       .  S
C1971      C1981   1.413       .  A
C1971      C1972   1.411       .  A
C1972      C1978   1.412       .  A
C1972      C1973   1.416       .  A
C1973      C1975   1.409   1_655  A
C1973      C1974   1.414       .  A
C1974      C1982   1.414   1_655  A
C1975      C1984   1.398       .  A
C1975      C1976   1.402       .  A
C1976      C1977   1.396   1_455  A
C1976      H1987   1.084       .  S
C1977      C1978   1.402       .  A
C1977      H1988   1.084   1_655  S
C1978      C1979   1.402       .  A
C1979      C1980   1.407       .  A
C1979      H1989   1.084       .  S
C1980      C1981   1.414       .  A
C1981      H1990   1.084       .  S
C1982      C1983   1.411       .  A
C1982      H1991   1.084       .  S
C1983      C1984   1.406       .  A
C1984      H1992   1.084       .  S
C1993      C1994   1.396       .  A
C1993      C1998   1.402       .  A
C1993      H2009   1.084       .  S
C1994      C1995   1.403       .  A
C1994      H2010   1.084       .  S
C1995      C2005   1.399       .  A
C1995      C1996   1.410       .  A
C1996      C2002   1.413       .  A
C1996      C1997   1.417       .  A
C1997      C1999   1.412       .  A
C1997      C1998   1.411       .  A
C1998      C2006   1.401       .  A
C1999      C2008   1.414       .  A
C1999      C2000   1.407       .  A
C2000      C2001   1.406       .  A
C2000      H2011   1.083       .  S
C2001      C2002   1.406       .  A
C2001      H2012   1.083       .  S
C2002      C2003   1.415       .  A
C2003      C2004   1.411       .  A
C2003      H2013   1.084       .  S
C2004      C2005   1.408       .  A
C2005      H2014   1.084       .  S
C2006      C2007   1.407       .  A
C2006      H2015   1.084       .  S
C2007      C2008   1.413       .  A
C2008      H2016   1.084       .  S
C2017      C2018   1.396   1_455  A
C2017      C2022   1.403       .  A
C2017      H2033   1.084       .  S
C2018      C2019   1.403       .  A
C2018      H2034   1.084       .  S
C2019      C2029   1.400       .  A
C2019      C2020   1.412       .  A
C2020      C2026   1.410       .  A
C2020      C2021   1.410       .  A
C2021      C2023   1.414       .  A
C2021      C2022   1.409   1_655  A
C2022      C2030   1.396       .  A
C2023      C2032   1.407   1_655  A
C2023      C2024   1.403       .  A
C2024      C2025   1.400       .  A
C2024      H2035   1.083       .  S
C2025      C2026   1.404       .  A
C2025      H2036   1.083       .  S
C2026      C2027   1.403       .  A
C2027      C2028   1.407       .  A
C2027      H2037   1.084       .  S
C2028      C2029   1.407       .  A
C2029      H2038   1.085       .  S
C2030      C2031   1.408       .  A
C2030      H2039   1.085       .  S
C2031      C2032   1.405       .  A
C2032      H2040   1.084       .  S
C2041      C2042   1.406       .  A
C2041      C2046   1.408       .  A
C2041      H2057   1.083       .  S
C2042      C2043   1.406       .  A
C2042      H2058   1.084       .  S
C2043      C2053   1.413       .  A
C2043      C2044   1.413       .  A
C2044      C2050   1.408       .  A
C2044      C2045   1.412       .  A
C2045      C2047   1.410       .  A
C2045      C2046   1.411       .  A
C2046      C2054   1.412       .  A
C2047      C2056   1.394       .  A
C2047      C2048   1.400       .  A
C2048      C2049   1.391       .  A
C2048      H2059   1.084       .  S
C2049      C2050   1.401       .  A
C2049      H2060   1.084       .  S
C2050      C2051   1.391       .  A
C2051      C2052   1.407       .  A
C2051      H2061   1.084       .  S
C2052      C2053   1.410       .  A
C2053      H2062   1.084       .  S
C2054      C2055   1.415       .  A
C2054      H2063   1.084       .  S
C2055      C2056   1.405       .  A
C2056      H2064   1.084       .  S
C2065      C2066   1.393       .  A
C2065      C2070   1.401       .  A
C2065      H2081   1.084       .  S
C2066      C2067   1.403       .  A
C2066      H2082   1.084       .  S
C2067      C2077   1.392       .  A
C2067      C2068   1.408       .  A
C2068      C2074   1.414       .  A
C2068      C2069   1.410       .  A
C2069      C2071   1.411       .  A
C2069      C2070   1.412       .  A
C2070      C2078   1.394       .  A
C2071      C2080   1.406       .  A
C2071      C2072   1.405       .  A
C2072      C2073   1.403       .  A
C2072      H2083   1.083       .  S
C2073      C2074   1.405       .  A
C2073      H2084   1.083       .  S
C2074      C2075   1.410       .  A
C2075      C2076   1.408       .  A
C2075      H2085   1.084       .  S
C2076      C2077   1.410       .  A
C2077      H2086   1.084       .  S
C2078      C2079   1.405       .  A
C2078      H2087   1.085       .  S
C2079      C2080   1.409       .  A
C2080      H2088   1.084       .  S
C2089      C2090   1.404       .  A
C2089      C2094   1.405       .  A
C2089      H2105   1.083       .  S
C2090      C2091   1.405       .  A
C2090      H2106   1.083       .  S
C2091      C2101   1.412   1_655  A
C2091      C2092   1.414       .  A
C2092      C2098   1.408   1_655  A
C2092      C2093   1.412       .  A
C2093      C2095   1.411       .  A
C2093      C2094   1.411       .  A
C2094      C2102   1.409       .  A
C2095      C2104   1.397       .  A
C2095      C2096   1.401       .  A
C2096      C2097   1.394   1_655  A
C2096      H2107   1.084       .  S
C2097      C2098   1.403       .  A
C2097      H2108   1.084       .  S
C2098      C2099   1.394       .  A
C2099      C2100   1.409       .  A
C2099      H2109   1.084       .  S
C2100      C2101   1.409       .  A
C2101      H2110   1.084       .  S
C2102      C2103   1.409       .  A
C2102      H2111   1.084       .  S
C2103      C2104   1.406       .  A
C2104      H2112   1.085       .  S
C2113      C2114   1.389       .  A
C2113      C2118   1.399       .  A
C2113      H2129   1.084       .  S
C2114      C2115   1.400       .  A
C2114      H2130   1.084       .  S
C2115      C2125   1.386       .  A
C2115      C2116   1.409       .  A
C2116      C2122   1.414       .  A
C2116      C2117   1.406       .  A
C2117      C2119   1.411       .  A
C2117      C2118   1.412       .  A
C2118      C2126   1.388       .  A
C2119      C2128   1.407       .  A
C2119      C2120   1.406       .  A
C2120      C2121   1.404       .  A
C2120      H2131   1.084       .  S
C2121      C2122   1.405       .  A
C2121      H2132   1.084       .  S
C2122      C2123   1.410       .  A
C2123      C2124   1.408       .  A
C2123      H2133   1.084       .  S
C2124      C2125   1.403       .  A
C2125      H2134   1.085       .  S
C2126      C2127   1.400       .  A
C2126      H2135   1.085       .  S
C2127      C2128   1.409       .  A
C2128      H2136   1.084       .  S
C2137      C2138   1.396   1_655  A
C2137      C2142   1.402       .  A
C2137      H2153   1.084       .  S
C2138      C2139   1.404       .  A
C2138      H2154   1.084       .  S
C2139      C2149   1.397       .  A
C2139      C2140   1.408   1_455  A
C2140      C2146   1.414       .  A
C2140      C2141   1.413       .  A
C2141      C2143   1.411       .  A
C2141      C2142   1.412       .  A
C2142      C2150   1.399       .  A
C2143      C2152   1.407       .  A
C2143      C2144   1.405       .  A
C2144      C2145   1.402       .  A
C2144      H2155   1.083       .  S
C2145      C2146   1.404       .  A
C2145      H2156   1.083       .  S
C2146      C2147   1.411   1_655  A
C2147      C2148   1.406       .  A
C2147      H2157   1.084       .  S
C2148      C2149   1.412       .  A
C2149      H2158   1.084       .  S
C2150      C2151   1.407       .  A
C2150      H2159   1.084       .  S
C2151      C2152   1.410       .  A
C2152      H2160   1.084       .  S
C2161      C2162   1.403       .  A
C2161      C2166   1.405       .  A
C2161      H2177   1.083       .  S
C2162      C2163   1.406       .  A
C2162      H2178   1.083       .  S
C2163      C2173   1.408       .  A
C2163      C2164   1.411       .  A
C2164      C2170   1.411       .  A
C2164      C2165   1.411       .  A
C2165      C2167   1.408       .  A
C2165      C2166   1.413       .  A
C2166      C2174   1.411       .  A
C2167      C2176   1.392       .  A
C2167      C2168   1.402       .  A
C2168      C2169   1.393       .  A
C2168      H2179   1.084       .  S
C2169      C2170   1.401       .  A
C2169      H2180   1.084       .  S
C2170      C2171   1.394       .  A
C2171      C2172   1.407       .  A
C2171      H2181   1.084       .  S
C2172      C2173   1.411       .  A
C2173      H2182   1.084       .  S
C2174      C2175   1.408       .  A
C2174      H2183   1.084       .  S
C2175      C2176   1.407       .  A
C2176      H2184   1.084       .  S
C2185      C2186   1.403       .  A
C2185      C2190   1.405       .  A
C2185      H2201   1.084       .  S
C2186      C2187   1.405       .  A
C2186      H2202   1.083       .  S
C2187      C2197   1.413   1_655  A
C2187      C2188   1.414       .  A
C2188      C2194   1.408   1_655  A
C2188      C2189   1.412       .  A
C2189      C2191   1.412       .  A
C2189      C2190   1.410       .  A
C2190      C2198   1.406       .  A
C2191      C2200   1.397       .  A
C2191      C2192   1.401       .  A
C2192      C2193   1.394   1_655  A
C2192      H2203   1.082       .  S
C2193      C2194   1.403       .  A
C2193      H2204   1.084       .  S
C2194      C2195   1.394       .  A
C2195      C2196   1.409       .  A
C2195      H2205   1.084       .  S
C2196      C2197   1.409       .  A
C2197      H2206   1.084       .  S
C2198      C2199   1.409       .  A
C2198      H2207   1.084       .  S
C2199      C2200   1.405       .  A
C2200      H2208   1.084       .  S
C2209      C2210   1.403       .  A
C2209      C2214   1.405       .  A
C2209      H2225   1.083       .  S
C2210      C2211   1.405       .  A
C2210      H2226   1.083       .  S
C2211      C2221   1.411       .  A
C2211      C2212   1.413       .  A
C2212      C2218   1.410       .  A
C2212      C2213   1.412       .  A
C2213      C2215   1.410       .  A
C2213      C2214   1.412       .  A
C2214      C2222   1.409       .  A
C2215      C2224   1.395       .  A
C2215      C2216   1.402       .  A
C2216      C2217   1.394       .  A
C2216      H2227   1.084       .  S
C2217      C2218   1.402       .  A
C2217      H2228   1.084       .  S
C2218      C2219   1.396       .  A
C2219      C2220   1.407       .  A
C2219      H2229   1.084       .  S
C2220      C2221   1.408       .  A
C2221      H2230   1.084       .  S
C2222      C2223   1.408       .  A
C2222      H2231   1.084       .  S
C2223      C2224   1.406       .  A
C2224      H2232   1.085       .  S
C2233      C2234   1.394   1_655  A
C2233      C2238   1.401       .  A
C2233      H2249   1.082       .  S
C2234      C2235   1.402       .  A
C2234      H2250   1.084       .  S
C2235      C2245   1.393       .  A
C2235      C2236   1.408   1_455  A
C2236      C2242   1.414       .  A
C2236      C2237   1.410       .  A
C2237      C2239   1.410       .  A
C2237      C2238   1.412       .  A
C2238      C2246   1.397       .  A
C2239      C2248   1.405       .  A
C2239      C2240   1.405       .  A
C2240      C2241   1.402       .  A
C2240      H2251   1.084       .  S
C2241      C2242   1.405       .  A
C2241      H2252   1.083       .  S
C2242      C2243   1.409   1_655  A
C2243      C2244   1.407       .  A
C2243      H2253   1.084       .  S
C2244      C2245   1.407       .  A
C2245      H2254   1.084       .  S
C2246      C2247   1.403       .  A
C2246      H2255   1.084       .  S
C2247      C2248   1.408       .  A
C2248      H2256   1.084       .  S
C2257      C2258   1.399       .  A
C2257      C2262   1.404       .  A
C2257      H2273   1.084       .  S
C2258      C2259   1.404       .  A
C2258      H2274   1.084       .  S
C2259      C2269   1.402       .  A
C2259      C2260   1.412       .  A
C2260      C2266   1.413       .  A
C2260      C2261   1.412       .  A
C2261      C2263   1.413       .  A
C2261      C2262   1.411       .  A
C2262      C2270   1.403       .  A
C2263      C2272   1.405       .  A
C2263      C2264   1.404       .  A
C2264      C2265   1.399       .  A
C2264      H2275   1.083       .  S
C2265      C2266   1.402       .  A
C2265      H2276   1.084       .  S
C2266      C2267   1.402       .  A
C2267      C2268   1.402       .  A
C2267      H2277   1.084       .  S
C2268      C2269   1.407       .  A
C2269      H2278   1.085       .  S
C2270      C2271   1.406       .  A
C2270      H2279   1.085       .  S
C2271      C2272   1.404       .  A
C2272      H2280   1.084       .  S
C2281      C2282   1.402       .  A
C2281      C2286   1.405       .  A
C2281      H2297   1.083       .  S
C2282      C2283   1.405       .  A
C2282      H2298   1.084       .  S
C2283      C2293   1.405       .  A
C2283      C2284   1.410       .  A
C2284      C2290   1.411       .  A
C2284      C2285   1.408       .  A
C2285      C2287   1.408       .  A
C2285      C2286   1.413       .  A
C2286      C2294   1.409       .  A
C2287      C2296   1.390       .  A
C2287      C2288   1.402       .  A
C2288      C2289   1.392       .  A
C2288      H2299   1.084       .  S
C2289      C2290   1.400       .  A
C2289      H2300   1.084       .  S
C2290      C2291   1.392       .  A
C2291      C2292   1.403       .  A
C2291      H2301   1.084       .  S
C2292      C2293   1.411       .  A
C2293      H2302   1.084       .  S
C2294      C2295   1.408       .  A
C2294      H2303   1.084       .  S
C2295      C2296   1.408       .  A
C2296      H2304   1.084       .  S
C2305      C2306   1.403       .  A
C2305      C2310   1.405       .  A
C2305      H2321   1.084       .  S
C2306      C2307   1.406       .  A
C2306      H2322   1.083       .  S
C2307      C2317   1.408       .  A
C2307      C2308   1.410       .  A
C2308      C2314   1.412       .  A
C2308      C2309   1.411       .  A
C2309      C2311   1.408       .  A
C2309      C2310   1.413       .  A
C2310      C2318   1.410       .  A
C2311      C2320   1.392       .  A
C2311      C2312   1.402       .  A
C2312      C2313   1.394       .  A
C2312      H2323   1.084       .  S
C2313      C2314   1.401       .  A
C2313      H2324   1.084       .  S
C2314      C2315   1.397       .  A
C2315      C2316   1.404       .  A
C2315      H2325   1.084       .  S
C2316      C2317   1.411       .  A
C2317      H2326   1.084       .  S
C2318      C2319   1.408       .  A
C2318      H2327   1.084       .  S
C2319      C2320   1.407       .  A
C2320      H2328   1.084       .  S
C2329      C2330   1.394       .  A
C2329      C2334   1.402       .  A
C2329      H2345   1.084       .  S
C2330      C2331   1.402       .  A
C2330      H2346   1.084       .  S
C2331      C2341   1.395       .  A
C2331      C2332   1.409       .  A
C2332      C2338   1.413       .  A
C2332      C2333   1.411       .  A
C2333      C2335   1.412       .  A
C2333      C2334   1.410       .  A
C2334      C2342   1.396       .  A
C2335      C2344   1.409       .  A
C2335      C2336   1.405       .  A
C2336      C2337   1.403       .  A
C2336      H2347   1.083       .  S
C2337      C2338   1.405       .  A
C2337      H2348   1.083       .  S
C2338      C2339   1.409       .  A
C2339      C2340   1.408       .  A
C2339      H2349   1.084       .  S
C2340      C2341   1.409       .  A
C2341      H2350   1.084       .  S
C2342      C2343   1.407       .  A
C2342      H2351   1.084       .  S
C2343      C2344   1.410       .  A
C2344      H2352   1.084       .  S
C2353      C2354   1.400       .  A
C2353      C2358   1.404       .  A
C2353      H2369   1.084       .  S
C2354      C2355   1.404       .  A
C2354      H2370   1.083       .  S
C2355      C2365   1.405       .  A
C2355      C2356   1.413       .  A
C2356      C2362   1.410       .  A
C2356      C2357   1.409       .  A
C2357      C2359   1.411       .  A
C2357      C2358   1.411       .  A
C2358      C2366   1.403       .  A
C2359      C2368   1.397       .  A
C2359      C2360   1.402       .  A
C2360      C2361   1.395       .  A
C2360      H2371   1.084       .  S
C2361      C2362   1.402       .  A
C2361      H2372   1.084       .  S
C2362      C2363   1.395       .  A
C2363      C2364   1.406       .  A
C2363      H2373   1.085       .  S
C2364      C2365   1.405       .  A
C2365      H2374   1.084       .  S
C2366      C2367   1.406       .  A
C2366      H2375   1.084       .  S
C2367      C2368   1.407       .  A
C2368      H2376   1.085       .  S
C2377      C2378   1.399       .  A
C2377      C2382   1.404       .  A
C2377      H2393   1.084       .  S
C2378      C2379   1.404       .  A
C2378      H2394   1.083       .  S
C2379      C2389   1.404       .  A
C2379      C2380   1.414       .  A
C2380      C2386   1.410       .  A
C2380      C2381   1.406       .  A
C2381      C2383   1.412       .  A
C2381      C2382   1.410       .  A
C2382      C2390   1.399       .  A
C2383      C2392   1.394       .  A
C2383      C2384   1.400       .  A
C2384      C2385   1.394       .  A
C2384      H2395   1.084       .  S
C2385      C2386   1.402       .  A
C2385      H2396   1.084       .  S
C2386      C2387   1.394       .  A
C2387      C2388   1.404       .  A
C2387      H2397   1.085       .  S
C2388      C2389   1.404       .  A
C2389      H2398   1.084       .  S
C2390      C2391   1.406       .  A
C2390      H2399   1.085       .  S
C2391      C2392   1.401       .  A
C2392      H2400   1.085       .  S
C2401      C2402   1.404       .  A
C2401      C2406   1.406       .  A
C2401      H2417   1.084       .  S
C2402      C2403   1.405       .  A
C2402      H2418   1.083       .  S
C2403      C2413   1.412       .  A
C2403      C2404   1.413       .  A
C2404      C2410   1.408       .  A
C2404      C2405   1.411       .  A
C2405      C2407   1.411       .  A
C2405      C2406   1.410       .  A
C2406      C2414   1.408       .  A
C2407      C2416   1.396       .  A
C2407      C2408   1.401       .  A
C2408      C2409   1.393       .  A
C2408      H2419   1.084       .  S
C2409      C2410   1.402       .  A
C2409      H2420   1.084       .  S
C2410      C2411   1.392       .  A
C2411      C2412   1.409       .  A
C2411      H2421   1.084       .  S
C2412      C2413   1.410       .  A
C2413      H2422   1.084       .  S
C2414      C2415   1.411       .  A
C2414      H2423   1.084       .  S
C2415      C2416   1.407       .  A
C2416      H2424   1.084       .  S
C2425      C2426   1.403       .  A
C2425      C2430   1.405       .  A
C2425      H2441   1.084       .  S
C2426      C2427   1.405       .  A
C2426      H2442   1.083       .  S
C2427      C2437   1.410       .  A
C2427      C2428   1.414       .  A
C2428      C2434   1.410       .  A
C2428      C2429   1.410       .  A
C2429      C2431   1.413       .  A
C2429      C2430   1.411       .  A
C2430      C2438   1.406       .  A
C2431      C2440   1.397       .  A
C2431      C2432   1.401       .  A
C2432      C2433   1.394       .  A
C2432      H2443   1.084       .  S
C2433      C2434   1.402       .  A
C2433      H2444   1.084       .  S
C2434      C2435   1.393       .  A
C2435      C2436   1.403       .  A
C2435      H2445   1.085       .  S
C2436      C2437   1.407       .  A
C2437      H2446   1.084       .  S
C2438      C2439   1.408       .  A
C2438      H2447   1.084       .  S
C2439      C2440   1.402       .  A
C2440      H2448   1.085       .  S
C2449      C2450   1.395       .  A
C2449      C2454   1.402       .  A
C2449      H2465   1.084       .  S
C2450      C2451   1.403       .  A
C2450      H2466   1.084       .  S
C2451      C2461   1.396       .  A
C2451      C2452   1.409       .  A
C2452      C2458   1.413       .  A
C2452      C2453   1.411       .  A
C2453      C2455   1.411       .  A
C2453      C2454   1.411       .  A
C2454      C2462   1.397       .  A
C2455      C2464   1.405       .  A
C2455      C2456   1.404       .  A
C2456      C2457   1.401       .  A
C2456      H2467   1.083       .  S
C2457      C2458   1.404       .  A
C2457      H2468   1.083       .  S
C2458      C2459   1.408       .  A
C2459      C2460   1.406       .  A
C2459      H2469   1.084       .  S
C2460      C2461   1.410       .  A
C2461      H2470   1.084       .  S
C2462      C2463   1.408       .  A
C2462      H2471   1.084       .  S
C2463      C2464   1.408       .  A
C2464      H2472   1.084       .  S
C2473      C2474   1.404       .  A
C2473      C2478   1.406       .  A
C2473      H2489   1.083       .  S
C2474      C2475   1.406       .  A
C2474      H2490   1.083       .  S
C2475      C2485   1.414       .  A
C2475      C2476   1.414       .  A
C2476      C2482   1.407       .  A
C2476      C2477   1.412       .  A
C2477      C2479   1.412       .  A
C2477      C2478   1.410       .  A
C2478      C2486   1.409       .  A
C2479      C2488   1.395       .  A
C2479      C2480   1.400       .  A
C2480      C2481   1.392       .  A
C2480      H2491   1.083       .  S
C2481      C2482   1.402       .  A
C2481      H2492   1.084       .  S
C2482      C2483   1.391       .  A
C2483      C2484   1.408       .  A
C2483      H2493   1.084       .  S
C2484      C2485   1.410       .  A
C2485      H2494   1.084       .  S
C2486      C2487   1.410       .  A
C2486      H2495   1.084       .  S
C2487      C2488   1.405       .  A
C2488      H2496   1.084       .  S
C2497      C2498   1.403       .  A
C2497      C2502   1.405       .  A
C2497      H2513   1.084       .  S
C2498      C2499   1.406       .  A
C2498      H2514   1.083       .  S
C2499      C2509   1.412       .  A
C2499      C2500   1.413       .  A
C2500      C2506   1.410       .  A
C2500      C2501   1.412       .  A
C2501      C2503   1.412       .  A
C2501      C2502   1.412       .  A
C2502      C2510   1.407       .  A
C2503      C2512   1.398       .  A
C2503      C2504   1.401       .  A
C2504      C2505   1.395       .  A
C2504      H2515   1.084       .  S
C2505      C2506   1.403       .  A
C2505      H2516   1.084       .  S
C2506      C2507   1.397       .  A
C2507      C2508   1.407       .  A
C2507      H2517   1.084       .  S
C2508      C2509   1.410       .  A
C2509      H2518   1.084       .  S
C2510      C2511   1.408       .  A
C2510      H2519   1.084       .  S
C2511      C2512   1.403       .  A
C2512      H2520   1.085       .  S
C2521      C2522   1.395       .  A
C2521      C2526   1.401       .  A
C2521      H2537   1.083       .  S
C2522      C2523   1.402       .  A
C2522      H2538   1.084       .  S
C2523      C2533   1.399       .  A
C2523      C2524   1.409       .  A
C2524      C2530   1.413       .  A
C2524      C2525   1.417       .  A
C2525      C2527   1.411       .  A
C2525      C2526   1.411       .  A
C2526      C2534   1.399       .  A
C2527      C2536   1.415       .  A
C2527      C2528   1.407       .  A
C2528      C2529   1.407       .  A
C2528      H2539   1.083       .  S
C2529      C2530   1.407       .  A
C2529      H2540   1.083       .  S
C2530      C2531   1.418       .  A
C2531      C2532   1.413       .  A
C2531      H2541   1.084       .  S
C2532      C2533   1.410       .  A
C2533      H2542   1.084       .  S
C2534      C2535   1.406       .  A
C2534      H2543   1.084       .  S
C2535      C2536   1.414       .  A
C2536      H2544   1.084       .  S
C2545      C2546   1.404       .  A
C2545      C2550   1.406       .  A
C2545      H2561   1.083       .  S
C2546      C2547   1.406       .  A
C2546      H2562   1.083       .  S
C2547      C2557   1.412       .  A
C2547      C2548   1.413       .  A
C2548      C2554   1.410       .  A
C2548      C2549   1.413       .  A
C2549      C2551   1.412       .  A
C2549      C2550   1.411       .  A
C2550      C2558   1.410       .  A
C2551      C2560   1.398       .  A
C2551      C2552   1.401       .  A
C2552      C2553   1.395       .  A
C2552      H2563   1.084       .  S
C2553      C2554   1.402       .  A
C2553      H2564   1.084       .  S
C2554      C2555   1.397       .  A
C2555      C2556   1.406       .  A
C2555      H2565   1.084       .  S
C2556      C2557   1.409       .  A
C2557      H2566   1.084       .  S
C2558      C2559   1.411       .  A
C2558      H2567   1.084       .  S
C2559      C2560   1.404       .  A
C2560      H2568   1.085       .  S
C2569      C2570   1.403       .  A
C2569      C2574   1.405       .  A
C2569      H2585   1.084       .  S
C2570      C2571   1.406       .  A
C2570      H2586   1.083       .  S
C2571      C2581   1.410       .  A
C2571      C2572   1.413       .  A
C2572      C2578   1.411       .  A
C2572      C2573   1.411       .  A
C2573      C2575   1.410       .  A
C2573      C2574   1.413       .  A
C2574      C2582   1.410       .  A
C2575      C2584   1.395       .  A
C2575      C2576   1.402       .  A
C2576      C2577   1.394       .  A
C2576      H2587   1.084       .  S
C2577      C2578   1.401       .  A
C2577      H2588   1.084       .  S
C2578      C2579   1.395       .  A
C2579      C2580   1.403       .  A
C2579      H2589   1.085       .  S
C2580      C2581   1.408       .  A
C2581      H2590   1.084       .  S
C2582      C2583   1.408       .  A
C2582      H2591   1.084       .  S
C2583      C2584   1.406       .  A
C2584      H2592   1.085       .  S
C2593      C2594   1.393       .  A
C2593      C2598   1.401       .  A
C2593      H2609   1.084       .  S
C2594      C2595   1.401       .  A
C2594      H2610   1.084       .  S
C2595      C2605   1.392       .  A
C2595      C2596   1.408       .  A
C2596      C2602   1.413   1_655  A
C2596      C2597   1.414       .  A
C2597      C2599   1.411       .  A
C2597      C2598   1.411       .  A
C2598      C2606   1.396       .  A
C2599      C2608   1.413       .  A
C2599      C2600   1.407       .  A
C2600      C2601   1.406   1_655  A
C2600      H2611   1.083   1_655  S
C2601      C2602   1.407       .  A
C2601      H2612   1.083       .  S
C2602      C2603   1.416       .  A
C2603      C2604   1.413       .  A
C2603      H2613   1.084       .  S
C2604      C2605   1.408   1_455  A
C2605      H2614   1.084       .  S
C2606      C2607   1.408       .  A
C2606      H2615   1.084       .  S
C2607      C2608   1.413       .  A
C2608      H2616   1.084       .  S
C2617      C2618   1.407   1_655  A
C2617      C2622   1.407       .  A
C2617      H2633   1.084   1_655  S
C2618      C2619   1.407       .  A
C2618      H2634   1.083       .  S
C2619      C2629   1.419       .  A
C2619      C2620   1.414   1_455  A
C2620      C2626   1.407       .  A
C2620      C2621   1.415       .  A
C2621      C2623   1.412       .  A
C2621      C2622   1.410       .  A
C2622      C2630   1.411       .  A
C2623      C2632   1.398       .  A
C2623      C2624   1.401       .  A
C2624      C2625   1.394       .  A
C2624      H2635   1.084       .  S
C2625      C2626   1.403       .  A
C2625      H2636   1.084       .  S
C2626      C2627   1.395       .  A
C2627      C2628   1.411   1_655  A
C2627      H2637   1.084       .  S
C2628      C2629   1.413       .  A
C2629      H2638   1.084       .  S
C2630      C2631   1.413       .  A
C2630      H2639   1.084       .  S
C2631      C2632   1.405       .  A
C2632      H2640   1.084       .  S
C2641      C2642   1.401       .  A
C2641      C2646   1.405       .  A
C2641      H2657   1.083       .  S
C2642      C2643   1.403       .  A
C2642      H2658   1.083       .  S
C2643      C2653   1.407       .  A
C2643      C2644   1.414       .  A
C2644      C2650   1.410       .  A
C2644      C2645   1.411       .  A
C2645      C2647   1.411       .  A
C2645      C2646   1.412       .  A
C2646      C2654   1.407       .  A
C2647      C2656   1.399       .  A
C2647      C2648   1.403       .  A
C2648      C2649   1.396       .  A
C2648      H2659   1.084       .  S
C2649      C2650   1.403       .  A
C2649      H2660   1.084       .  S
C2650      C2651   1.396       .  A
C2651      C2652   1.406       .  A
C2651      H2661   1.085       .  S
C2652      C2653   1.404       .  A
C2653      H2662   1.084       .  S
C2654      C2655   1.408       .  A
C2654      H2663   1.084       .  S
C2655      C2656   1.408       .  A
C2656      H2664   1.085       .  S
C2665      C2666   1.393       .  A
C2665      C2670   1.402       .  A
C2665      H2681   1.084       .  S
C2666      C2667   1.401       .  A
C2666      H2682   1.084       .  S
C2667      C2677   1.395       .  A
C2667      C2668   1.411       .  A
C2668      C2674   1.411       .  A
C2668      C2669   1.409       .  A
C2669      C2671   1.414       .  A
C2669      C2670   1.409       .  A
C2670      C2678   1.392       .  A
C2671      C2680   1.408       .  A
C2671      C2672   1.404       .  A
C2672      C2673   1.401       .  A
C2672      H2683   1.083       .  S
C2673      C2674   1.405       .  A
C2673      H2684   1.083       .  S
C2674      C2675   1.405       .  A
C2675      C2676   1.408       .  A
C2675      H2685   1.084       .  S
C2676      C2677   1.405       .  A
C2677      H2686   1.085       .  S
C2678      C2679   1.405       .  A
C2678      H2687   1.085       .  S
C2679      C2680   1.406       .  A
C2680      H2688   1.084       .  S
C2689      C2690   1.392       .  A
C2689      C2694   1.400       .  A
C2689      H2705   1.084       .  S
C2690      C2691   1.402       .  A
C2690      H2706   1.084       .  S
C2691      C2701   1.391       .  A
C2691      C2692   1.408       .  A
C2692      C2698   1.413       .  A
C2692      C2693   1.409       .  A
C2693      C2695   1.411       .  A
C2693      C2694   1.411       .  A
C2694      C2702   1.392       .  A
C2695      C2704   1.406       .  A
C2695      C2696   1.405       .  A
C2696      C2697   1.403       .  A
C2696      H2707   1.084       .  S
C2697      C2698   1.405       .  A
C2697      H2708   1.083       .  S
C2698      C2699   1.409       .  A
C2699      C2700   1.409       .  A
C2699      H2709   1.084       .  S
C2700      C2701   1.408       .  A
C2701      H2710   1.084       .  S
C2702      C2703   1.405       .  A
C2702      H2711   1.084       .  S
C2703      C2704   1.409       .  A
C2704      H2712   1.084       .  S
C2713      C2714   1.401       .  A
C2713      C2718   1.405       .  A
C2713      H2729   1.084       .  S
C2714      C2715   1.404       .  A
C2714      H2730   1.084       .  S
C2715      C2725   1.404       .  A
C2715      C2716   1.412       .  A
C2716      C2722   1.411       .  A
C2716      C2717   1.407       .  A
C2717      C2719   1.412       .  A
C2717      C2718   1.413       .  A
C2718      C2726   1.405       .  A
C2719      C2728   1.393       .  A
C2719      C2720   1.400       .  A
C2720      C2721   1.393       .  A
C2720      H2731   1.084       .  S
C2721      C2722   1.402       .  A
C2721      H2732   1.084       .  S
C2722      C2723   1.394       .  A
C2723      C2724   1.403       .  A
C2723      H2733   1.085       .  S
C2724      C2725   1.404       .  A
C2725      H2734   1.084       .  S
C2726      C2727   1.407       .  A
C2726      H2735   1.085       .  S
C2727      C2728   1.398       .  A
C2728      H2736   1.085       .  S
C2737      C2738   1.405       .  A
C2737      C2742   1.405       .  A
C2737      H2753   1.083       .  S
C2738      C2739   1.406       .  A
C2738      H2754   1.083       .  S
C2739      C2749   1.411       .  A
C2739      C2740   1.411       .  A
C2740      C2746   1.411       .  A
C2740      C2741   1.413       .  A
C2741      C2743   1.408       .  A
C2741      C2742   1.414       .  A
C2742      C2750   1.414       .  A
C2743      C2752   1.394       .  A
C2743      C2744   1.402       .  A
C2744      C2745   1.394       .  A
C2744      H2755   1.084       .  S
C2745      C2746   1.401       .  A
C2745      H2756   1.084       .  S
C2746      C2747   1.397       .  A
C2747      C2748   1.407       .  A
C2747      H2757   1.084       .  S
C2748      C2749   1.412       .  A
C2749      H2758   1.084       .  S
C2750      C2751   1.409       .  A
C2750      H2759   1.084       .  S
C2751      C2752   1.409       .  A
C2752      H2760   1.084       .  S
C2761      C2762   1.394       .  A
C2761      C2766   1.402       .  A
C2761      H2777   1.084       .  S
C2762      C2763   1.401       .  A
C2762      H2778   1.084       .  S
C2763      C2773   1.399       .  A
C2763      C2764   1.413       .  A
C2764      C2770   1.409       .  A
C2764      C2765   1.412       .  A
C2765      C2767   1.415       .  A
C2765      C2766   1.406       .  A
C2766      C2774   1.391       .  A
C2767      C2776   1.415       .  A
C2767      C2768   1.405       .  A
C2768      C2769   1.405       .  A
C2768      H2779   1.083       .  S
C2769      C2770   1.407       .  A
C2769      H2780   1.083       .  S
C2770      C2771   1.408       .  A
C2771      C2772   1.413       .  A
C2771      H2781   1.084       .  S
C2772      C2773   1.405       .  A
C2773      H2782   1.084       .  S
C2774      C2775   1.408       .  A
C2774      H2783   1.084       .  S
C2775      C2776   1.410       .  A
C2776      H2784   1.084       .  S
C2785      C2786   1.399       .  A
C2785      C2790   1.403       .  A
C2785      H2801   1.084       .  S
C2786      C2787   1.404       .  A
C2786      H2802   1.084       .  S
C2787      C2797   1.401       .  A
C2787      C2788   1.411       .  A
C2788      C2794   1.413       .  A
C2788      C2789   1.414       .  A
C2789      C2791   1.412       .  A
C2789      C2790   1.412       .  A
C2790      C2798   1.404       .  A
C2791      C2800   1.407       .  A
C2791      C2792   1.405       .  A
C2792      C2793   1.401       .  A
C2792      H2803   1.084       .  S
C2793      C2794   1.404       .  A
C2793      H2804   1.084       .  S
C2794      C2795   1.407       .  A
C2795      C2796   1.405       .  A
C2795      H2805   1.084       .  S
C2796      C2797   1.407       .  A
C2797      H2806   1.085       .  S
C2798      C2799   1.407       .  A
C2798      H2807   1.085       .  S
C2799      C2800   1.409       .  A
C2800      H2808   1.084       .  S
C2809      C2810   1.391       .  A
C2809      C2814   1.401       .  A
C2809      H2825   1.084       .  S
C2810      C2811   1.400       .  A
C2810      H2826   1.084       .  S
C2811      C2821   1.390       .  A
C2811      C2812   1.410       .  A
C2812      C2818   1.411       .  A
C2812      C2813   1.408       .  A
C2813      C2815   1.412       .  A
C2813      C2814   1.410       .  A
C2814      C2822   1.391       .  A
C2815      C2824   1.409       .  A
C2815      C2816   1.406       .  A
C2816      C2817   1.403       .  A
C2816      H2827   1.083       .  S
C2817      C2818   1.405       .  A
C2817      H2828   1.084       .  S
C2818      C2819   1.406       .  A
C2819      C2820   1.410       .  A
C2819      H2829   1.084       .  S
C2820      C2821   1.403       .  A
C2821      H2830   1.084       .  S
C2822      C2823   1.403       .  A
C2822      H2831   1.084       .  S
C2823      C2824   1.410       .  A
C2824      H2832   1.084       .  S
C2833      C2834   1.395       .  A
C2833      C2838   1.402       .  A
C2833      H2849   1.084       .  S
C2834      C2835   1.403       .  A
C2834      H2850   1.084       .  S
C2835      C2845   1.393       .  A
C2835      C2836   1.409       .  A
C2836      C2842   1.414       .  A
C2836      C2837   1.409       .  A
C2837      C2839   1.412       .  A
C2837      C2838   1.412       .  A
C2838      C2846   1.396       .  A
C2839      C2848   1.404       .  A
C2839      C2840   1.404       .  A
C2840      C2841   1.400       .  A
C2840      H2851   1.083       .  S
C2841      C2842   1.403       .  A
C2841      H2852   1.083       .  S
C2842      C2843   1.406       .  A
C2843      C2844   1.404       .  A
C2843      H2853   1.084       .  S
C2844      C2845   1.407       .  A
C2845      H2854   1.085       .  S
C2846      C2847   1.405       .  A
C2846      H2855   1.085       .  S
C2847      C2848   1.405       .  A
C2848      H2856   1.084       .  S
C2857      C2858   1.395       .  A
C2857      C2862   1.402       .  A
C2857      H2873   1.084       .  S
C2858      C2859   1.403       .  A
C2858      H2874   1.084       .  S
C2859      C2869   1.393       .  A
C2859      C2860   1.408       .  A
C2860      C2866   1.414       .  A
C2860      C2861   1.409       .  A
C2861      C2863   1.410       .  A
C2861      C2862   1.412       .  A
C2862      C2870   1.397       .  A
C2863      C2872   1.402       .  A
C2863      C2864   1.404       .  A
C2864      C2865   1.400       .  A
C2864      H2875   1.084       .  S
C2865      C2866   1.404       .  A
C2865      H2876   1.083       .  S
C2866      C2867   1.407       .  A
C2867      C2868   1.405       .  A
C2867      H2877   1.084       .  S
C2868      C2869   1.408       .  A
C2869      H2878   1.084       .  S
C2870      C2871   1.405       .  A
C2870      H2879   1.085       .  S
C2871      C2872   1.407       .  A
C2872      H2880   1.084       .  S
C2881      C2882   1.403   1_455  A
C2881      C2886   1.405   1_455  A
C2881      H2897   1.083       .  S
C2882      C2883   1.405       .  A
C2882      H2898   1.083       .  S
C2883      C2893   1.409       .  A
C2883      C2884   1.412       .  A
C2884      C2890   1.411       .  A
C2884      C2885   1.414       .  A
C2885      C2887   1.411       .  A
C2885      C2886   1.412       .  A
C2886      C2894   1.410   1_655  A
C2887      C2896   1.401       .  A
C2887      C2888   1.404       .  A
C2888      C2889   1.397       .  A
C2888      H2899   1.083       .  S
C2889      C2890   1.402       .  A
C2889      H2900   1.084       .  S
C2890      C2891   1.398       .  A
C2891      C2892   1.405       .  A
C2891      H2901   1.085       .  S
C2892      C2893   1.409       .  A
C2893      H2902   1.084       .  S
C2894      C2895   1.408       .  A
C2894      H2903   1.084       .  S
C2895      C2896   1.409   1_455  A
C2896      H2904   1.085       .  S
C2905      C2906   1.403   1_455  A
C2905      C2910   1.405   1_455  A
C2905      H2921   1.083       .  S
C2906      C2907   1.405       .  A
C2906      H2922   1.084       .  S
C2907      C2917   1.406       .  A
C2907      C2908   1.412       .  A
C2908      C2914   1.412       .  A
C2908      C2909   1.411       .  A
C2909      C2911   1.410       .  A
C2909      C2910   1.413       .  A
C2910      C2918   1.410   1_655  A
C2911      C2920   1.396       .  A
C2911      C2912   1.402       .  A
C2912      C2913   1.395       .  A
C2912      H2923   1.084       .  S
C2913      C2914   1.401       .  A
C2913      H2924   1.084       .  S
C2914      C2915   1.397       .  A
C2915      C2916   1.403       .  A
C2915      H2925   1.085       .  S
C2916      C2917   1.408       .  A
C2917      H2926   1.084       .  S
C2918      C2919   1.408       .  A
C2918      H2927   1.084       .  S
C2919      C2920   1.405   1_455  A
C2920      H2928   1.085       .  S
C2929      C2930   1.403       .  A
C2929      C2934   1.405       .  A
C2929      H2945   1.083       .  S
C2930      C2931   1.405       .  A
C2930      H2946   1.084       .  S
C2931      C2941   1.407       .  A
C2931      C2932   1.411       .  A
C2932      C2938   1.412       .  A
C2932      C2933   1.411       .  A
C2933      C2935   1.409       .  A
C2933      C2934   1.413       .  A
C2934      C2942   1.410       .  A
C2935      C2944   1.394       .  A
C2935      C2936   1.402       .  A
C2936      C2937   1.394       .  A
C2936      H2947   1.084       .  S
C2937      C2938   1.401       .  A
C2937      H2948   1.084       .  S
C2938      C2939   1.396       .  A
C2939      C2940   1.403       .  A
C2939      H2949   1.085       .  S
C2940      C2941   1.408       .  A
C2941      H2950   1.084       .  S
C2942      C2943   1.408       .  A
C2942      H2951   1.084       .  S
C2943      C2944   1.407       .  A
C2944      H2952   1.085       .  S
C2953      C2954   1.393       .  A
C2953      C2958   1.400       .  A
C2953      H2969   1.084       .  S
C2954      C2955   1.403       .  A
C2954      H2970   1.084       .  S
C2955      C2965   1.395       .  A
C2955      C2956   1.409       .  A
C2956      C2962   1.412       .  A
C2956      C2957   1.411       .  A
C2957      C2959   1.411       .  A
C2957      C2958   1.410       .  A
C2958      C2966   1.393       .  A
C2959      C2968   1.407       .  A
C2959      C2960   1.405       .  A
C2960      C2961   1.403       .  A
C2960      H2971   1.084       .  S
C2961      C2962   1.405       .  A
C2961      H2972   1.083       .  S
C2962      C2963   1.411       .  A
C2963      C2964   1.409       .  A
C2963      H2973   1.084       .  S
C2964      C2965   1.411       .  A
C2965      H2974   1.084       .  S
C2966      C2967   1.404       .  A
C2966      H2975   1.084       .  S
C2967      C2968   1.410       .  A
C2968      H2976   1.084       .  S
C2977      C2978   1.401       .  A
C2977      C2982   1.404       .  A
C2977      H2993   1.083       .  S
C2978      C2979   1.404       .  A
C2978      H2994   1.084       .  S
C2979      C2989   1.405       .  A
C2979      C2980   1.411       .  A
C2980      C2986   1.412       .  A
C2980      C2981   1.411       .  A
C2981      C2983   1.410       .  A
C2981      C2982   1.414       .  A
C2982      C2990   1.408       .  A
C2983      C2992   1.397       .  A
C2983      C2984   1.403       .  A
C2984      C2985   1.396       .  A
C2984      H2995   1.084       .  S
C2985      C2986   1.402       .  A
C2985      H2996   1.084       .  S
C2986      C2987   1.398       .  A
C2987      C2988   1.405       .  A
C2987      H2997   1.085       .  S
C2988      C2989   1.407       .  A
C2989      H2998   1.084       .  S
C2990      C2991   1.405       .  A
C2990      H2999   1.084       .  S
C2991      C2992   1.407       .  A
C2992      H3000   1.085       .  S
C3001      C3002   1.397       .  A
C3001      C3006   1.403       .  A
C3001      H3017   1.084       .  S
C3002      C3003   1.403       .  A
C3002      H3018   1.084       .  S
C3003      C3013   1.396       .  A
C3003      C3004   1.409       .  A
C3004      C3010   1.414       .  A
C3004      C3005   1.411       .  A
C3005      C3007   1.410       .  A
C3005      C3006   1.413       .  A
C3006      C3014   1.403       .  A
C3007      C3016   1.403       .  A
C3007      C3008   1.405       .  A
C3008      C3009   1.400       .  A
C3008      H3019   1.083       .  S
C3009      C3010   1.403       .  A
C3009      H3020   1.084       .  S
C3010      C3011   1.406       .  A
C3011      C3012   1.405       .  A
C3011      H3021   1.084       .  S
C3012      C3013   1.407       .  A
C3013      H3022   1.085       .  S
C3014      C3015   1.407       .  A
C3014      H3023   1.084       .  S
C3015      C3016   1.409       .  A
C3016      H3024   1.084       .  S
