geometry optimzed in LAMMPS
_audit_creation_date              2020-11-30 
_audit_creation_method            'lammps2cif' 
_symmetry_space_group_name_H-M    'P1' 
_symmetry_Int_Tables_number       1 
_symmetry_cell_setting            triclinic 
loop_ 
_symmetry_equiv_pos_as_xyz 
  x,y,z 
_cell_length_a                    24.74982103 
_cell_length_b                    24.761024456767082 
_cell_length_c                    25.89586371293767 
_cell_angle_alpha                 90.0003850188501 
_cell_angle_beta                  89.99922760032837 
_cell_angle_gamma                 90.00266412037861 
loop_ 
_atom_site_label 
_atom_site_type_symbol 
_atom_site_fract_x 
_atom_site_fract_y 
_atom_site_fract_z 
_atom_site_charge 
O1          O  0.44588975  0.36878595  0.04137724    -0.74300
O2          O  0.01574787  0.46832227  0.94453123    -0.74300
O3          O  0.02503830  0.44195056  0.04607987    -0.74300
O4          O  0.43963737  0.38687502  0.93682280    -0.74400
O5          O  0.37188715  0.44196053  0.95809637    -0.74300
O6          O  0.47063586  0.01267919  0.05507696    -0.74300
O7          O  0.44440683  0.02193839  0.95342112    -0.74300
O8          O  0.38991908  0.43582938  0.06257353    -0.74300
Ni9        Ni  0.48342346  0.41370250  0.99120784     1.25400
Ni10       Ni  0.41641621  0.47993298  0.00827148     1.25400
C11         C  0.40863706  0.38877446  0.07056627     0.87900
C12         C  0.49232393  0.01445835  0.93710983     0.87900
C13         C  0.01701068  0.48969568  0.06246175     0.87900
C14         C  0.39231808  0.40499214  0.92888138     0.88100
O15         O  0.41187602  0.11878877  0.70840329    -0.74300
O16         O  0.34201734  0.21831695  0.80525161    -0.74300
O17         O  0.33272998  0.19194977  0.70370162    -0.74300
O18         O  0.41812426  0.13687352  0.81295922    -0.74400
O19         O  0.48587728  0.19196425  0.79169212    -0.74300
O20         O  0.38713534  0.26267989  0.69470930    -0.74300
O21         O  0.41335846  0.27193574  0.79636694    -0.74300
O22         O  0.46785100  0.18583569  0.68721342    -0.74300
Ni23       Ni  0.37434169  0.16370114  0.75857360     1.25400
Ni24       Ni  0.44135243  0.22993597  0.74151612     1.25400
C25         C  0.44913114  0.13878033  0.67921704     0.87900
C26         C  0.36544016  0.26445317  0.81267561     0.87900
C27         C  0.34076098  0.23969566  0.68732184     0.87900
C28         C  0.46544362  0.15499329  0.82090421     0.88100
C29         C  0.16162462  0.52653169  0.04350185     0.86700
C30         C  0.10327381  0.51666445  0.03109401    -0.53600
C31         C  0.06815885  0.52057992  0.07142667     0.09600
C32         C  0.09775939  0.53711980  0.12262147     0.20500
C33         C  0.16268831  0.08323939  0.06566666    -0.54300
C34         C  0.13131384  0.08855458  0.10911256     0.09700
C35         C  0.17540940  0.48906258  0.08855565    -0.53800
C36         C  0.14327099  0.49529292  0.13060530     0.10300
H37         H  0.09169056  0.50181675  0.99338472     0.14800
H38         H  0.07049378  0.54216090  0.15633403     0.00500
H39         H  0.19363440  0.11227608  0.05479665     0.15100
H40         H  0.20991555  0.46184156  0.08828758     0.14900
C41         C  0.27360484  0.19782099  0.29353239     0.86700
C42         C  0.26809390  0.25669569  0.28106515    -0.53600
C43         C  0.27288409  0.29142569  0.32165918     0.09600
C44         C  0.28675548  0.26053452  0.37303967     0.20500
C45         C  0.32962471  0.19285952  0.31666256    -0.54300
C46         C  0.33623092  0.22375938  0.36019348     0.09700
C47         C  0.23436586  0.18650027  0.33787790    -0.53800
C48         C  0.24199974  0.21788138  0.38021967     0.10300
H49         H  0.25455540  0.26908969  0.24316863     0.14800
H50         H  0.29311887  0.28726120  0.40693131     0.00500
H51         H  0.35686611  0.16023061  0.30605508     0.15100
H52         H  0.20536872  0.15347525  0.33722650     0.14900
C53         C  0.33416640  0.40950913  0.79353286     0.86700
C54         C  0.33967400  0.35063402  0.78106539    -0.53600
C55         C  0.33488246  0.31590485  0.82165960     0.09600
C56         C  0.32101278  0.34679729  0.87304039     0.20500
C57         C  0.27814697  0.41447386  0.81666459    -0.54300
C58         C  0.27153924  0.38357470  0.86019543     0.09700
C59         C  0.37340632  0.42082823  0.83787727    -0.53800
C60         C  0.36577092  0.38944787  0.88021923     0.10300
H61         H  0.35321197  0.33823891  0.74316852     0.14800
H62         H  0.31464793  0.32007129  0.90693209     0.00500
H63         H  0.25090712  0.44710387  0.80605784     0.15100
H64         H  0.40240499  0.45385188  0.83722518     0.14900
C65         C  0.44614257  0.08080082  0.54349847     0.86700
C66         C  0.50449406  0.09066721  0.53109154    -0.53600
C67         C  0.03960779  0.08674890  0.57142408     0.09600
C68         C  0.51000524  0.07020727  0.62261768     0.20500
C69         C  0.44507772  0.02408676  0.56566119    -0.54300
C70         C  0.47645045  0.01877065  0.60910729     0.09700
C71         C  0.43235741  0.11826806  0.58855433    -0.53800
C72         C  0.46449449  0.11203492  0.63060364     0.10300
H73         H  0.51607848  0.10551678  0.49338332     0.14800
H74         H  0.03726962  0.06516390  0.65633008     0.00500
H75         H  0.41413213  0.99505022  0.55478996     0.15100
H76         H  0.39785226  0.14549040  0.58828756     0.14900
O77         O  0.16188053  0.23854193  0.54137904    -0.74300
O78         O  0.09202217  0.13900675  0.44453268    -0.74300
O79         O  0.08273081  0.16537841  0.54608177    -0.74300
O80         O  0.16813313  0.22045388  0.43682455    -0.74400
O81         O  0.23588266  0.16536749  0.45809562    -0.74300
O82         O  0.13713041  0.09464957  0.55507607    -0.74300
O83         O  0.16336104  0.08539260  0.45341982    -0.74300
O84         O  0.21784996  0.17149750  0.56257318    -0.74300
Ni85       Ni  0.12434651  0.19362620  0.49120964     1.25400
Ni86       Ni  0.19135280  0.12739478  0.50827077     1.25400
C87         C  0.19913296  0.21855281  0.57056679     0.87900
C88         C  0.11544359  0.09287147  0.43711069     0.87900
C89         C  0.09075702  0.11763263  0.56246152     0.87900
C90         C  0.21545236  0.20233663  0.42888200     0.88100
O91         O  0.12188766  0.41536395  0.29169270    -0.74300
O92         O  0.22063356  0.34464894  0.19470984    -0.74300
O93         O  0.19440783  0.33539357  0.29636725    -0.74300
O94         O  0.13991628  0.42149144  0.18721389    -0.74400
O95         O  0.19588889  0.48853998  0.20840411    -0.74300
O96         O  0.26574773  0.38901374  0.30525161    -0.74300
O97         O  0.27503651  0.41538088  0.20370163    -0.74300
O98         O  0.18963924  0.47045611  0.31295967    -0.74300
Ni99       Ni  0.16641444  0.37739231  0.24151656     1.25400
Ni100      Ni  0.23342326  0.44362879  0.25857393     1.25400
C101        C  0.14232001  0.45233571  0.32090465     0.87900
C102        C  0.26700745  0.36763440  0.18732244     0.87900
C103        C  0.24232569  0.34287704  0.31267558     0.87900
C104        C  0.15863485  0.46854739  0.17921792     0.88100
C105        C  0.19615067  0.27654230  0.70628166     0.86700
C106        C  0.25449910  0.26666536  0.71868871    -0.53600
C107        C  0.28961505  0.27057862  0.67835663     0.09600
C108        C  0.26001846  0.28712298  0.62716233     0.20500
C109        C  0.19510157  0.33325602  0.68411743    -0.54300
C110        C  0.22647590  0.33856536  0.64067045     0.09700
C111        C  0.18235688  0.23907589  0.66122712    -0.53800
C112        C  0.21449737  0.24530199  0.61917801     0.10300
H113        H  0.26607921  0.25181473  0.75639743     0.14800
H114        H  0.28728535  0.29216012  0.59344988     0.00500
H115        H  0.16416279  0.36229757  0.69498762     0.15100
H116        H  0.14784561  0.21185824  0.66149516     0.14900
C117        C  0.52359161  0.15951640  0.95625375     0.86700
C118        C  0.51809200  0.10064011  0.96872122    -0.55600
C119        C  0.52288393  0.06591171  0.92812621     0.09600
C120        C  0.53674977  0.09680701  0.87674536     0.20500
C121        C  0.07960974  0.16449272  0.93312077    -0.54300
C122        C  0.08622007  0.13359387  0.88959014     0.09700
C123        C  0.48434935  0.17082723  0.91191013    -0.53800
C124        C  0.49198748  0.13944890  0.86956738     0.10300
H125        H  0.50455722  0.08824253  0.00661871     0.14800
H126        H  0.54311718  0.07008213  0.84285337     0.00500
H127        H  0.10684672  0.19712784  0.94372746     0.15100
H128        H  0.45534852  0.20384618  0.91256249     0.14900
C129        C  0.08417361  0.44781460  0.45625611     0.86700
C130        C  0.08967534  0.50669097  0.46872297    -0.53600
C131        C  0.08488494  0.04141710  0.42812878     0.09600
C132        C  0.07101446  0.51052318  0.37674827     0.20500
C133        C  0.02815456  0.44283934  0.43312602    -0.54300
C134        C  0.02154373  0.47373770  0.38959560     0.09700
C135        C  0.12341405  0.43650210  0.41191044    -0.53800
C136        C  0.11577544  0.46787993  0.36956815     0.10300
H137        H  0.10321188  0.51908842  0.50661945     0.14800
H138        H  0.06464771  0.03724829  0.34285744     0.00500
H139        H  0.00091716  0.41020496  0.44373402     0.15100
H140        H  0.15241469  0.40348286  0.41256152     0.14900
C141        C  0.41161825  0.33079033  0.20628299     0.86700
C142        C  0.35326973  0.34066907  0.21868989    -0.53600
C143        C  0.31815464  0.33675314  0.17835822     0.09600
C144        C  0.34775181  0.32020546  0.12716458     0.20500
C145        C  0.41266676  0.27407510  0.18412132    -0.54300
C146        C  0.38129311  0.26876350  0.14067486     0.09700
C147        C  0.42541365  0.36825358  0.16122660    -0.53800
C148        C  0.39327370  0.36202543  0.11917803     0.10300
H149        H  0.34168893  0.35552187  0.25639794     0.14800
H150        H  0.32048554  0.31516662  0.09345254     0.00500
H151        H  0.44360497  0.24503366  0.19499251     0.15100
H152        H  0.45992480  0.39547136  0.16149347     0.14900
C153        C  0.44549776  0.34342610  0.25068428    -0.18300
C154        C  0.46369768  0.37186451  0.28399746     0.05700
C155        C  0.97815185  0.41342155  0.31829325     0.07600
C156        C  0.99307427  0.44686590  0.34874943    -0.19200
C157        C  0.50959808  0.19260127  0.00078272    -0.18300
C158        C  0.48083334  0.20995243  0.03422915     0.05700
C159        C  0.43950755  0.22380135  0.06896275     0.07600
C160        C  0.40668164  0.23895889  0.09989222    -0.19200
C161        C  0.16226989  0.26390835  0.75068314    -0.18300
C162        C  0.14406792  0.23546955  0.78399504     0.05700
C163        C  0.12961175  0.19391109  0.81828828     0.07600
C164        C  0.11468858  0.16046574  0.84874305    -0.19200
C165        C  0.09816843  0.41472981  0.50078424    -0.18300
C166        C  0.12693450  0.39737731  0.53422822     0.05700
C167        C  0.16826136  0.38352603  0.56895891     0.07600
C168        C  0.20108757  0.36836777  0.59988694    -0.19200
C169        C  0.34815625  0.44259613  0.74900386    -0.18300
C170        C  0.37691704  0.45995099  0.71555509     0.05700
C171        C  0.41823170  0.97380812  0.68081934     0.07600
C172        C  0.45105750  0.98896715  0.64988929    -0.19200
C173        C  0.41226588  0.09344279  0.49909763    -0.18300
C174        C  0.39406977  0.12188560  0.46578751     0.05700
C175        C  0.37961946  0.16344577  0.43149546     0.07600
C176        C  0.36469925  0.19689081  0.40104063    -0.19200
C177        C  0.19550311  0.51389287  0.99910064    -0.18300
C178        C  0.21370062  0.48545091  0.96578987     0.05700
C179        C  0.22815139  0.44389033  0.93149778     0.07600
C180        C  0.24307142  0.41044446  0.90104304    -0.19200
C181        C  0.25961592  0.16473242  0.24900408    -0.18300
C182        C  0.23085396  0.14737523  0.21555781     0.05700
C183        C  0.18953010  0.13351917  0.18082439     0.07600
C184        C  0.15670478  0.11835818  0.14989538    -0.19200
O185        O  0.44588457  0.86878738  0.04137593    -0.74300
O186        O  0.01574451  0.96832267  0.94453046    -0.74300
O187        O  0.02503481  0.94194993  0.04607877    -0.74300
O188        O  0.43963143  0.88687764  0.93682197    -0.74400
O189        O  0.37188322  0.94196527  0.95809645    -0.74300
O190        O  0.47063730  0.51267839  0.05507685    -0.74300
O191        O  0.44440834  0.52193572  0.95342067    -0.74300
O192        O  0.38991599  0.93583216  0.06257344    -0.74300
Ni193      Ni  0.48341887  0.91370345  0.99120677     1.25400
Ni194      Ni  0.41641373  0.97993577  0.00827162     1.25400
C195        C  0.40863298  0.88877670  0.07056565     0.87900
C196        C  0.49232576  0.51445706  0.93710975     0.87900
C197        C  0.01700863  0.98969513  0.06246120     0.87900
C198        C  0.39231262  0.90499632  0.92888117     0.88100
O199        O  0.41187426  0.61878953  0.70840223    -0.74300
O200        O  0.34201852  0.71831901  0.80525093    -0.74300
O201        O  0.33272990  0.69195251  0.70370081    -0.74300
O202        O  0.41812363  0.63687401  0.81295805    -0.74400
O203        O  0.48587771  0.69196335  0.79169081    -0.74300
O204        O  0.38713681  0.76268139  0.69470830    -0.74300
O205        O  0.41336058  0.77193650  0.79636560    -0.74300
O206        O  0.46785084  0.68583508  0.68721221    -0.74300
Ni207      Ni  0.37434130  0.66370273  0.75857264     1.25400
Ni208      Ni  0.44135344  0.72993608  0.74151487     1.25400
C209        C  0.44912989  0.63878012  0.67921602     0.87900
C210        C  0.36544234  0.76445474  0.81267464     0.87900
C211        C  0.34076185  0.73969827  0.68732102     0.87900
C212        C  0.46544342  0.65499278  0.82090296     0.88100
C213        C  0.16162372  0.02652607  0.04350168     0.86700
C214        C  0.10327268  0.01666072  0.03109363    -0.53600
C215        C  0.06815764  0.02057786  0.07142604     0.09600
C216        C  0.09775821  0.03711779  0.12262075     0.20500
C217        C  0.16268732  0.58324467  0.06566764    -0.54300
C218        C  0.13131329  0.58855795  0.10911403     0.09700
C219        C  0.17540679  0.98905727  0.08855613    -0.53800
C220        C  0.14326827  0.99528949  0.13060548     0.10300
H221        H  0.09168914  0.00181288  0.99338440     0.14800
H222        H  0.07049251  0.04216040  0.15633305     0.00500
H223        H  0.19363241  0.61228249  0.05479799     0.15100
H224        H  0.20991209  0.96183506  0.08828870     0.14900
C225        C  0.27360808  0.69782023  0.29353181     0.86700
C226        C  0.26809516  0.75669482  0.28106476    -0.53600
C227        C  0.27288428  0.79142482  0.32165888     0.09600
C228        C  0.28675677  0.76053395  0.37303918     0.20500
C229        C  0.32962815  0.69286050  0.31666182    -0.54300
C230        C  0.33623330  0.72376018  0.36019301     0.09700
C231        C  0.23436948  0.68649813  0.33787732    -0.53800
C232        C  0.24200229  0.71787957  0.38021902     0.10300
H233        H  0.25455605  0.76908855  0.24316833     0.14800
H234        H  0.29311929  0.78726077  0.40693086     0.00500
H235        H  0.35687038  0.66023237  0.30605435     0.15100
H236        H  0.20537312  0.65347247  0.33722582     0.14900
C237        C  0.33416017  0.90951102  0.79353243     0.86700
C238        C  0.33967628  0.85063668  0.78106501    -0.53600
C239        C  0.33488587  0.81590686  0.82165867     0.09600
C240        C  0.32101129  0.84679697  0.87303920     0.20500
C241        C  0.27813908  0.91446842  0.81666238    -0.54300
C242        C  0.27153385  0.88356856  0.86019324     0.09700
C243        C  0.37339695  0.92083495  0.83787811    -0.53800
C244        C  0.36576428  0.88945302  0.88021942     0.10300
H245        H  0.35321684  0.83824288  0.74316858     0.14800
H246        H  0.31464898  0.82006994  0.90693059     0.00500
H247        H  0.25089581  0.94709541  0.80605526     0.15100
H248        H  0.40239248  0.95386131  0.83722671     0.14900
C249        C  0.44614243  0.58080049  0.54349753     0.86700
C250        C  0.50449340  0.59067075  0.53109100    -0.53600
C251        C  0.03960731  0.58675282  0.57142329     0.09600
C252        C  0.51000589  0.57020884  0.62261654     0.20500
C253        C  0.44508087  0.52408584  0.56565928    -0.54300
C254        C  0.47645407  0.51877066  0.60910525     0.09700
C255        C  0.43235515  0.61826604  0.58855393    -0.53800
C256        C  0.46449282  0.61203403  0.63060298     0.10300
H257        H  0.51607736  0.60552156  0.49338282     0.14800
H258        H  0.03727073  0.56516671  0.65632878     0.00500
H259        H  0.41413687  0.49504783  0.55478765     0.15100
H260        H  0.39784893  0.64548698  0.58828736     0.14900
O261        O  0.16188372  0.73854239  0.54137801    -0.74300
O262        O  0.09202239  0.63900865  0.44453200    -0.74300
O263        O  0.08273210  0.66538105  0.54608089    -0.74300
O264        O  0.16813556  0.72045383  0.43682351    -0.74400
O265        O  0.23588369  0.66536576  0.45809472    -0.74300
O266        O  0.13712993  0.59465085  0.55507534    -0.74300
O267        O  0.16336002  0.58539285  0.45341889    -0.74300
O268        O  0.21785126  0.67149646  0.56257231    -0.74300
Ni269      Ni  0.12434838  0.69362751  0.49120870     1.25400
Ni270      Ni  0.19135296  0.62739438  0.50826988     1.25400
C271        C  0.19913546  0.71855225  0.57056595     0.87900
C272        C  0.11544262  0.59287275  0.43710997     0.87900
C273        C  0.09075717  0.61763514  0.56246073     0.87900
C274        C  0.21545430  0.70233532  0.42888105     0.88100
O275        O  0.12188435  0.91535925  0.29169291    -0.74300
O276        O  0.22063214  0.84464730  0.19470998    -0.74300
O277        O  0.19440663  0.83539057  0.29636714    -0.74300
O278        O  0.13991349  0.92148818  0.18721423    -0.74400
O279        O  0.19588447  0.98853784  0.20840520    -0.74300
O280        O  0.26574494  0.88901273  0.30525237    -0.74300
O281        O  0.27503350  0.91538037  0.20370263    -0.74300
O282        O  0.18963426  0.97045326  0.31296039    -0.74300
Ni283      Ni  0.16641227  0.87738912  0.24151672     1.25400
Ni284      Ni  0.23341938  0.94362717  0.25857487     1.25400
C285        C  0.14231542  0.95233163  0.32090495     0.87900
C286        C  0.26700554  0.86763382  0.18732306     0.87900
C287        C  0.24232425  0.84287526  0.31267569     0.87900
C288        C  0.15863126  0.96854453  0.17921856     0.88100
C289        C  0.19615179  0.77654161  0.70628087     0.86700
C290        C  0.25450081  0.76666882  0.71868826    -0.53600
C291        C  0.28961652  0.77058255  0.67835590     0.09600
C292        C  0.26001872  0.78712448  0.62716129     0.20500
C293        C  0.19509913  0.83325474  0.68411566    -0.54300
C294        C  0.22647300  0.83856517  0.64066856     0.09700
C295        C  0.18236028  0.73907344  0.66122689    -0.53800
C296        C  0.21450016  0.74530082  0.61917751     0.10300
H297        H  0.26608148  0.75181943  0.75639706     0.14800
H298        H  0.28728513  0.79216297  0.59344868     0.00500
H299        H  0.16415867  0.86229471  0.69498550     0.15100
H300        H  0.14785022  0.71185422  0.66149516     0.14900
C301        C  0.52358993  0.65951619  0.95625306     0.86700
C302        C  0.51809092  0.60063992  0.96872066    -0.55600
C303        C  0.52288393  0.56591144  0.92812582     0.09600
C304        C  0.53674963  0.59680671  0.87674490     0.20500
C305        C  0.07960817  0.66449315  0.93312044    -0.54300
C306        C  0.08621936  0.63359411  0.88959005     0.09700
C307        C  0.48434794  0.67082642  0.91190912    -0.53800
C308        C  0.49198686  0.63944818  0.86956641     0.10300
H309        H  0.50455617  0.58824229  0.00661805     0.14800
H310        H  0.54311765  0.57008188  0.84285300     0.00500
H311        H  0.10684480  0.69712856  0.94372731     0.15100
H312        H  0.45534678  0.70384509  0.91256120     0.14900
C313        C  0.08416816  0.94781283  0.45625647     0.86700
C314        C  0.08967684  0.00668860  0.46872311    -0.53600
C315        C  0.08488252  0.54141899  0.42812820     0.09600
C316        C  0.07101306  0.01052311  0.37674906     0.20500
C317        C  0.02814778  0.94284357  0.43312773    -0.54300
C318        C  0.02153911  0.97374249  0.38959725     0.09700
C319        C  0.12340611  0.93649628  0.41190988    -0.53800
C320        C  0.11576984  0.96787532  0.36956805     0.10300
H321        H  0.10321544  0.01908509  0.50661940     0.14800
H322        H  0.06464693  0.53724751  0.34285642     0.00500
H323        H  0.00090756  0.91021165  0.44373609     0.15100
H324        H  0.15240415  0.90347475  0.41256057     0.14900
C325        C  0.41161735  0.83079469  0.20628293     0.86700
C326        C  0.35326858  0.84067112  0.21869026    -0.53600
C327        C  0.31815333  0.83675367  0.17835884     0.09600
C328        C  0.34775058  0.82020640  0.12716517     0.20500
C329        C  0.41266810  0.77407933  0.18412173    -0.54300
C330        C  0.38129401  0.76876592  0.14067579     0.09700
C331        C  0.42541070  0.86825808  0.16122608    -0.53800
C332        C  0.39327058  0.86202814  0.11917784     0.10300
H333        H  0.34168754  0.85552384  0.25639826     0.14800
H334        H  0.32048421  0.81516611  0.09345340     0.00500
H335        H  0.44360745  0.74503917  0.19499300     0.15100
H336        H  0.45992088  0.89547719  0.16149235     0.14900
C337        C  0.44549658  0.84343234  0.25068388    -0.18300
C338        C  0.46369477  0.87187151  0.28399731     0.05700
C339        C  0.97814669  0.91342856  0.31829390     0.07600
C340        C  0.99306836  0.94687232  0.34875096    -0.19200
C341        C  0.50959584  0.69260103  0.00078195    -0.18300
C342        C  0.48083171  0.70995234  0.03422881     0.05700
C343        C  0.43950710  0.72380214  0.06896341     0.07600
C344        C  0.40668214  0.73896059  0.09989340    -0.19200
C345        C  0.16227140  0.76390652  0.75068236    -0.18300
C346        C  0.14406949  0.73546785  0.78399439     0.05700
C347        C  0.12961271  0.69391008  0.81828812     0.07600
C348        C  0.11468877  0.66046541  0.84874322    -0.19200
C349        C  0.09816091  0.91472699  0.50078448    -0.18300
C350        C  0.12692708  0.89737389  0.53422811     0.05700
C351        C  0.16825505  0.88352291  0.56895775     0.07600
C352        C  0.20108266  0.86836573  0.59988492    -0.19200
C353        C  0.34814758  0.94259945  0.74900370    -0.18300
C354        C  0.37690844  0.95995499  0.71555531     0.05700
C355        C  0.41823904  0.47380466  0.68081798     0.07600
C356        C  0.45106325  0.48896511  0.64988705    -0.19200
C357        C  0.41226551  0.59344153  0.49909663    -0.18300
C358        C  0.39406966  0.62188456  0.46578655     0.05700
C359        C  0.37962034  0.66344545  0.43149487     0.07600
C360        C  0.36470102  0.69689117  0.40104032    -0.19200
C361        C  0.19550176  0.01388524  0.99910071    -0.18300
C362        C  0.21369720  0.98544235  0.96578965     0.05700
C363        C  0.22814534  0.94388170  0.93149666     0.07600
C364        C  0.24306450  0.91043643  0.90104097    -0.19200
C365        C  0.25961990  0.66473147  0.24900347    -0.18300
C366        C  0.23085708  0.64737458  0.21555775     0.05700
C367        C  0.18953161  0.63351984  0.18082563     0.07600
C368        C  0.15670494  0.61836025  0.14989731    -0.19200
O369        O  0.94588979  0.36878595  0.04137724    -0.74300
O370        O  0.51574783  0.46832227  0.94453123    -0.74300
O371        O  0.52503826  0.44195055  0.04607987    -0.74300
O372        O  0.93963741  0.38687501  0.93682279    -0.74400
O373        O  0.87188719  0.44196052  0.95809637    -0.74300
O374        O  0.97063589  0.01267920  0.05507696    -0.74300
O375        O  0.94440686  0.02193839  0.95342111    -0.74300
O376        O  0.88991912  0.43582938  0.06257353    -0.74300
Ni377      Ni  0.98342350  0.41370251  0.99120784     1.25400
Ni378      Ni  0.91641625  0.47993297  0.00827148     1.25400
C379        C  0.90863710  0.38877445  0.07056627     0.87900
C380        C  0.99232397  0.01445836  0.93710982     0.87900
C381        C  0.51701064  0.48969567  0.06246175     0.87900
C382        C  0.89231812  0.40499214  0.92888137     0.88100
O383        O  0.91187601  0.11878877  0.70840329    -0.74300
O384        O  0.84201733  0.21831695  0.80525162    -0.74300
O385        O  0.83272996  0.19194977  0.70370162    -0.74300
O386        O  0.91812425  0.13687352  0.81295922    -0.74400
O387        O  0.98587727  0.19196425  0.79169211    -0.74300
O388        O  0.88713532  0.26267989  0.69470930    -0.74300
O389        O  0.91335845  0.27193574  0.79636694    -0.74300
O390        O  0.96785098  0.18583569  0.68721341    -0.74300
Ni391      Ni  0.87434168  0.16370114  0.75857360     1.25400
Ni392      Ni  0.94135241  0.22993597  0.74151611     1.25400
C393        C  0.94913113  0.13878033  0.67921704     0.87900
C394        C  0.86544016  0.26445317  0.81267561     0.87900
C395        C  0.84076096  0.23969566  0.68732185     0.87900
C396        C  0.96544362  0.15499330  0.82090421     0.88100
C397        C  0.66162459  0.52653168  0.04350185     0.86700
C398        C  0.60327378  0.51666443  0.03109402    -0.53600
C399        C  0.56815882  0.52057990  0.07142667     0.09600
C400        C  0.59775936  0.53711979  0.12262148     0.20500
C401        C  0.66268827  0.08323938  0.06566666    -0.54300
C402        C  0.63131380  0.08855457  0.10911256     0.09700
C403        C  0.67540938  0.48906258  0.08855565    -0.53800
C404        C  0.64327097  0.49529292  0.13060530     0.10300
H405        H  0.59169053  0.50181672  0.99338473     0.14800
H406        H  0.57049375  0.54216088  0.15633404     0.00500
H407        H  0.69363436  0.11227608  0.05479664     0.15100
H408        H  0.70991553  0.46184156  0.08828758     0.14900
C409        C  0.77360482  0.19782099  0.29353239     0.86700
C410        C  0.76809388  0.25669569  0.28106515    -0.53600
C411        C  0.77288407  0.29142569  0.32165918     0.09600
C412        C  0.78675546  0.26053452  0.37303967     0.20500
C413        C  0.82962469  0.19285951  0.31666255    -0.54300
C414        C  0.83623090  0.22375937  0.36019347     0.09700
C415        C  0.73436583  0.18650027  0.33787790    -0.53800
C416        C  0.74199972  0.21788139  0.38021967     0.10300
H417        H  0.75455538  0.26908969  0.24316862     0.14800
H418        H  0.79311886  0.28726119  0.40693130     0.00500
H419        H  0.85686609  0.16023061  0.30605507     0.15100
H420        H  0.70536870  0.15347525  0.33722650     0.14900
C421        C  0.83416640  0.40950913  0.79353287     0.86700
C422        C  0.83967399  0.35063402  0.78106540    -0.53600
C423        C  0.83488245  0.31590485  0.82165960     0.09600
C424        C  0.82101280  0.34679729  0.87304040     0.20500
C425        C  0.77814698  0.41447387  0.81666461    -0.54300
C426        C  0.77153925  0.38357471  0.86019545     0.09700
C427        C  0.87340633  0.42082821  0.83787727    -0.53800
C428        C  0.86577095  0.38944786  0.88021923     0.10300
H429        H  0.85321194  0.33823890  0.74316852     0.14800
H430        H  0.81464795  0.32007129  0.90693210     0.00500
H431        H  0.75090713  0.44710388  0.80605786     0.15100
H432        H  0.90240501  0.45385186  0.83722517     0.14900
C433        C  0.94614257  0.08080082  0.54349847     0.86700
C434        C  0.00449406  0.09066721  0.53109154    -0.53600
C435        C  0.53960779  0.08674890  0.57142408     0.09600
C436        C  0.01000524  0.07020727  0.62261769     0.20500
C437        C  0.94507771  0.02408676  0.56566119    -0.54300
C438        C  0.97645044  0.01877065  0.60910729     0.09700
C439        C  0.93235741  0.11826806  0.58855433    -0.53800
C440        C  0.96449449  0.11203492  0.63060364     0.10300
H441        H  0.01607848  0.10551678  0.49338331     0.14800
H442        H  0.53726963  0.06516390  0.65633008     0.00500
H443        H  0.91413212  0.99505022  0.55478996     0.15100
H444        H  0.89785226  0.14549041  0.58828756     0.14900
O445        O  0.66188052  0.23854193  0.54137904    -0.74300
O446        O  0.59202215  0.13900676  0.44453268    -0.74300
O447        O  0.58273081  0.16537842  0.54608177    -0.74300
O448        O  0.66813311  0.22045388  0.43682455    -0.74400
O449        O  0.73588264  0.16536750  0.45809562    -0.74300
O450        O  0.63713040  0.09464958  0.55507608    -0.74300
O451        O  0.66336102  0.08539261  0.45341982    -0.74300
O452        O  0.71784995  0.17149751  0.56257318    -0.74300
Ni453      Ni  0.62434650  0.19362620  0.49120964     1.25400
Ni454      Ni  0.69135279  0.12739478  0.50827077     1.25400
C455        C  0.69913295  0.21855282  0.57056679     0.87900
C456        C  0.61544358  0.09287147  0.43711069     0.87900
C457        C  0.59075701  0.11763264  0.56246153     0.87900
C458        C  0.71545234  0.20233663  0.42888200     0.88100
O459        O  0.62188764  0.41536395  0.29169269    -0.74300
O460        O  0.72063355  0.34464894  0.19470983    -0.74300
O461        O  0.69440782  0.33539357  0.29636724    -0.74300
O462        O  0.63991627  0.42149144  0.18721389    -0.74400
O463        O  0.69588887  0.48853998  0.20840411    -0.74300
O464        O  0.76574771  0.38901374  0.30525160    -0.74300
O465        O  0.77503650  0.41538089  0.20370162    -0.74300
O466        O  0.68963922  0.47045610  0.31295966    -0.74300
Ni467      Ni  0.66641443  0.37739231  0.24151656     1.25400
Ni468      Ni  0.73342325  0.44362879  0.25857393     1.25400
C469        C  0.64231999  0.45233571  0.32090465     0.87900
C470        C  0.76700744  0.36763441  0.18732243     0.87900
C471        C  0.74232567  0.34287704  0.31267557     0.87900
C472        C  0.65863483  0.46854739  0.17921792     0.88100
C473        C  0.69615065  0.27654230  0.70628166     0.86700
C474        C  0.75449908  0.26666536  0.71868872    -0.53600
C475        C  0.78961504  0.27057862  0.67835663     0.09600
C476        C  0.76001844  0.28712298  0.62716234     0.20500
C477        C  0.69510155  0.33325602  0.68411743    -0.54300
C478        C  0.72647588  0.33856536  0.64067045     0.09700
C479        C  0.68235686  0.23907589  0.66122712    -0.53800
C480        C  0.71449735  0.24530199  0.61917801     0.10300
H481        H  0.76607919  0.25181473  0.75639744     0.14800
H482        H  0.78728534  0.29216012  0.59344988     0.00500
H483        H  0.66416277  0.36229757  0.69498762     0.15100
H484        H  0.64784559  0.21185824  0.66149516     0.14900
C485        C  0.02359161  0.15951641  0.95625374     0.86700
C486        C  0.01809202  0.10064012  0.96872121    -0.55600
C487        C  0.02288396  0.06591172  0.92812620     0.09600
C488        C  0.03674979  0.09680702  0.87674536     0.20500
C489        C  0.57960974  0.16449269  0.93312078    -0.54300
C490        C  0.58622007  0.13359385  0.88959014     0.09700
C491        C  0.98434934  0.17082723  0.91191013    -0.53800
C492        C  0.99198748  0.13944890  0.86956737     0.10300
H493        H  0.00455725  0.08824254  0.00661870     0.14800
H494        H  0.04311720  0.07008215  0.84285337     0.00500
H495        H  0.60684672  0.19712781  0.94372747     0.15100
H496        H  0.95534851  0.20384617  0.91256249     0.14900
C497        C  0.58417360  0.44781461  0.45625610     0.86700
C498        C  0.58967533  0.50669098  0.46872296    -0.53600
C499        C  0.58488493  0.04141710  0.42812879     0.09600
C500        C  0.57101445  0.51052319  0.37674826     0.20500
C501        C  0.52815454  0.44283936  0.43312602    -0.54300
C502        C  0.52154371  0.47373772  0.38959560     0.09700
C503        C  0.62341403  0.43650210  0.41191044    -0.53800
C504        C  0.61577542  0.46787993  0.36956815     0.10300
H505        H  0.60321188  0.51908844  0.50661944     0.14800
H506        H  0.56464770  0.03724830  0.34285744     0.00500
H507        H  0.50091714  0.41020498  0.44373402     0.15100
H508        H  0.65241467  0.40348285  0.41256152     0.14900
C509        C  0.91161824  0.33079033  0.20628299     0.86700
C510        C  0.85326972  0.34066908  0.21868988    -0.53600
C511        C  0.81815463  0.33675316  0.17835820     0.09600
C512        C  0.84775181  0.32020547  0.12716457     0.20500
C513        C  0.91266674  0.27407510  0.18412132    -0.54300
C514        C  0.88129310  0.26876351  0.14067486     0.09700
C515        C  0.92541366  0.36825358  0.16122660    -0.53800
C516        C  0.89327372  0.36202542  0.11917803     0.10300
H517        H  0.84168891  0.35552188  0.25639792     0.14800
H518        H  0.82048555  0.31516664  0.09345252     0.00500
H519        H  0.94360494  0.24503365  0.19499252     0.15100
H520        H  0.95992482  0.39547135  0.16149348     0.14900
C521        C  0.94549774  0.34342610  0.25068428    -0.18300
C522        C  0.96369766  0.37186451  0.28399747     0.05700
C523        C  0.47815185  0.41342155  0.31829325     0.07600
C524        C  0.49307427  0.44686591  0.34874942    -0.19200
C525        C  0.00959808  0.19260128  0.00078272    -0.18300
C526        C  0.98083334  0.20995243  0.03422915     0.05700
C527        C  0.93950754  0.22380135  0.06896275     0.07600
C528        C  0.90668163  0.23895889  0.09989222    -0.19200
C529        C  0.66226987  0.26390834  0.75068314    -0.18300
C530        C  0.64406789  0.23546954  0.78399505     0.05700
C531        C  0.62961173  0.19391108  0.81828828     0.07600
C532        C  0.61468857  0.16046572  0.84874305    -0.19200
C533        C  0.59816842  0.41472982  0.50078424    -0.18300
C534        C  0.62693448  0.39737732  0.53422822     0.05700
C535        C  0.66826134  0.38352603  0.56895891     0.07600
C536        C  0.70108755  0.36836777  0.59988695    -0.19200
C537        C  0.84815624  0.44259613  0.74900387    -0.18300
C538        C  0.87691702  0.45995099  0.71555509     0.05700
C539        C  0.91823168  0.97380812  0.68081933     0.07600
C540        C  0.95105748  0.98896716  0.64988929    -0.19200
C541        C  0.91226587  0.09344280  0.49909763    -0.18300
C542        C  0.89406976  0.12188560  0.46578751     0.05700
C543        C  0.87961944  0.16344577  0.43149546     0.07600
C544        C  0.86469923  0.19689080  0.40104063    -0.19200
C545        C  0.69550308  0.51389287  0.99910064    -0.18300
C546        C  0.71370060  0.48545091  0.96578988     0.05700
C547        C  0.72815138  0.44389033  0.93149780     0.07600
C548        C  0.74307143  0.41044446  0.90104306    -0.19200
C549        C  0.75961590  0.16473242  0.24900407    -0.18300
C550        C  0.73085393  0.14737523  0.21555781     0.05700
C551        C  0.68953007  0.13351916  0.18082438     0.07600
C552        C  0.65670475  0.11835817  0.14989538    -0.19200
O553        O  0.94588462  0.86878739  0.04137592    -0.74300
O554        O  0.51574447  0.96832266  0.94453046    -0.74300
O555        O  0.52503477  0.94194992  0.04607877    -0.74300
O556        O  0.93963147  0.88687765  0.93682196    -0.74400
O557        O  0.87188325  0.94196527  0.95809645    -0.74300
O558        O  0.97063732  0.51267839  0.05507685    -0.74300
O559        O  0.94440837  0.52193571  0.95342066    -0.74300
O560        O  0.88991603  0.93583216  0.06257343    -0.74300
Ni561      Ni  0.98341891  0.91370346  0.99120676     1.25400
Ni562      Ni  0.91641377  0.97993577  0.00827162     1.25400
C563        C  0.90863302  0.88877670  0.07056563     0.87900
C564        C  0.99232579  0.51445707  0.93710976     0.87900
C565        C  0.51700859  0.98969511  0.06246121     0.87900
C566        C  0.89231266  0.90499632  0.92888116     0.88100
O567        O  0.91187423  0.61878953  0.70840223    -0.74300
O568        O  0.84201851  0.71831901  0.80525094    -0.74300
O569        O  0.83272987  0.69195252  0.70370082    -0.74300
O570        O  0.91812361  0.63687401  0.81295805    -0.74400
O571        O  0.98587770  0.69196334  0.79169081    -0.74300
O572        O  0.88713679  0.76268139  0.69470831    -0.74300
O573        O  0.91336058  0.77193649  0.79636561    -0.74300
O574        O  0.96785082  0.68583508  0.68721221    -0.74300
Ni575      Ni  0.87434129  0.66370273  0.75857265     1.25400
Ni576      Ni  0.94135342  0.72993607  0.74151488     1.25400
C577        C  0.94912987  0.63878012  0.67921602     0.87900
C578        C  0.86544233  0.76445474  0.81267465     0.87900
C579        C  0.84076183  0.73969828  0.68732104     0.87900
C580        C  0.96544341  0.65499277  0.82090296     0.88100
C581        C  0.66162369  0.02652606  0.04350168     0.86700
C582        C  0.60327265  0.01666069  0.03109363    -0.53600
C583        C  0.56815761  0.02057784  0.07142605     0.09600
C584        C  0.59775817  0.03711778  0.12262075     0.20500
C585        C  0.66268728  0.58324467  0.06566763    -0.54300
C586        C  0.63131325  0.58855794  0.10911403     0.09700
C587        C  0.67540677  0.98905726  0.08855614    -0.53800
C588        C  0.64326824  0.99528949  0.13060549     0.10300
H589        H  0.59168911  0.00181285  0.99338441     0.14800
H590        H  0.57049247  0.04216039  0.15633305     0.00500
H591        H  0.69363237  0.61228249  0.05479798     0.15100
H592        H  0.70991206  0.96183506  0.08828871     0.14900
C593        C  0.77360807  0.69782024  0.29353181     0.86700
C594        C  0.76809518  0.75669483  0.28106476    -0.53600
C595        C  0.77288430  0.79142484  0.32165888     0.09600
C596        C  0.78675678  0.76053395  0.37303917     0.20500
C597        C  0.82962814  0.69286049  0.31666181    -0.54300
C598        C  0.83623331  0.72376017  0.36019300     0.09700
C599        C  0.73436947  0.68649815  0.33787732    -0.53800
C600        C  0.74200230  0.71787958  0.38021902     0.10300
H601        H  0.75455607  0.76908857  0.24316832     0.14800
H602        H  0.79311932  0.78726077  0.40693085     0.00500
H603        H  0.85687036  0.66023235  0.30605434     0.15100
H604        H  0.70537311  0.65347250  0.33722582     0.14900
C605        C  0.83416018  0.90951102  0.79353244     0.86700
C606        C  0.83967627  0.85063668  0.78106502    -0.53600
C607        C  0.83488587  0.81590686  0.82165869     0.09600
C608        C  0.82101130  0.84679697  0.87303922     0.20500
C609        C  0.77813909  0.91446843  0.81666240    -0.54300
C610        C  0.77153387  0.88356857  0.86019326     0.09700
C611        C  0.87339697  0.92083495  0.83787810    -0.53800
C612        C  0.86576431  0.88945301  0.88021941     0.10300
H613        H  0.85321682  0.83824288  0.74316858     0.14800
H614        H  0.81464900  0.82006994  0.90693060     0.00500
H615        H  0.75089582  0.94709542  0.80605529     0.15100
H616        H  0.90239250  0.95386130  0.83722670     0.14900
C617        C  0.94614242  0.58080048  0.54349753     0.86700
C618        C  0.00449339  0.59067075  0.53109100    -0.53600
C619        C  0.53960732  0.58675281  0.57142329     0.09600
C620        C  0.01000587  0.57020885  0.62261655     0.20500
C621        C  0.94508086  0.52408584  0.56565928    -0.54300
C622        C  0.97645406  0.51877067  0.60910525     0.09700
C623        C  0.93235513  0.61826604  0.58855393    -0.53800
C624        C  0.96449280  0.61203403  0.63060298     0.10300
H625        H  0.01607735  0.60552156  0.49338282     0.14800
H626        H  0.53727075  0.56516670  0.65632878     0.00500
H627        H  0.91413686  0.49504782  0.55478766     0.15100
H628        H  0.89784891  0.64548698  0.58828736     0.14900
O629        O  0.66188373  0.73854239  0.54137802    -0.74300
O630        O  0.59202240  0.63900866  0.44453200    -0.74300
O631        O  0.58273211  0.66538105  0.54608089    -0.74300
O632        O  0.66813557  0.72045384  0.43682351    -0.74400
O633        O  0.73588370  0.66536577  0.45809472    -0.74300
O634        O  0.63712994  0.59465084  0.55507533    -0.74300
O635        O  0.66336003  0.58539286  0.45341888    -0.74300
O636        O  0.71785127  0.67149646  0.56257232    -0.74300
Ni637      Ni  0.62434839  0.69362751  0.49120871     1.25400
Ni638      Ni  0.69135297  0.62739438  0.50826988     1.25400
C639        C  0.69913546  0.71855224  0.57056597     0.87900
C640        C  0.61544263  0.59287276  0.43710996     0.87900
C641        C  0.59075719  0.61763513  0.56246073     0.87900
C642        C  0.71545431  0.70233533  0.42888105     0.88100
O643        O  0.62188435  0.91535924  0.29169292    -0.74300
O644        O  0.72063214  0.84464731  0.19470998    -0.74300
O645        O  0.69440665  0.83539058  0.29636714    -0.74300
O646        O  0.63991348  0.92148818  0.18721424    -0.74400
O647        O  0.69588445  0.98853785  0.20840520    -0.74300
O648        O  0.76574495  0.88901274  0.30525236    -0.74300
O649        O  0.77503349  0.91538040  0.20370263    -0.74300
O650        O  0.68963426  0.97045326  0.31296039    -0.74300
Ni651      Ni  0.66641228  0.87738912  0.24151673     1.25400
Ni652      Ni  0.73341938  0.94362718  0.25857487     1.25400
C653        C  0.64231542  0.95233163  0.32090496     0.87900
C654        C  0.76700554  0.86763384  0.18732305     0.87900
C655        C  0.74232427  0.84287527  0.31267568     0.87900
C656        C  0.65863124  0.96854453  0.17921856     0.88100
C657        C  0.69615177  0.77654161  0.70628089     0.86700
C658        C  0.75450079  0.76666883  0.71868828    -0.53600
C659        C  0.78961649  0.77058256  0.67835593     0.09600
C660        C  0.76001870  0.78712449  0.62716131     0.20500
C661        C  0.69509908  0.83325473  0.68411567    -0.54300
C662        C  0.72647296  0.83856516  0.64066858     0.09700
C663        C  0.68236028  0.73907343  0.66122691    -0.53800
C664        C  0.71450015  0.74530081  0.61917752     0.10300
H665        H  0.76608145  0.75181945  0.75639709     0.14800
H666        H  0.78728510  0.79216298  0.59344870     0.00500
H667        H  0.66415861  0.86229469  0.69498551     0.15100
H668        H  0.64785020  0.71185419  0.66149518     0.14900
C669        C  0.02358990  0.65951618  0.95625308     0.86700
C670        C  0.01809091  0.60063992  0.96872070    -0.55600
C671        C  0.02288395  0.56591146  0.92812585     0.09600
C672        C  0.03674964  0.59680673  0.87674492     0.20500
C673        C  0.57960821  0.66449311  0.93312043    -0.54300
C674        C  0.58621938  0.63359406  0.88959003     0.09700
C675        C  0.98434791  0.67082640  0.91190912    -0.53800
C676        C  0.99198685  0.63944817  0.86956641     0.10300
H677        H  0.00455617  0.58824231  0.00661804     0.14800
H678        H  0.04311768  0.57008193  0.84285301     0.00500
H679        H  0.60684484  0.69712852  0.94372731     0.15100
H680        H  0.95534672  0.70384506  0.91256119     0.14900
C681        C  0.58416815  0.94781283  0.45625647     0.86700
C682        C  0.58967682  0.00668860  0.46872312    -0.53600
C683        C  0.58488252  0.54141900  0.42812819     0.09600
C684        C  0.57101305  0.01052312  0.37674906     0.20500
C685        C  0.52814777  0.94284358  0.43312773    -0.54300
C686        C  0.52153910  0.97374249  0.38959726     0.09700
C687        C  0.62340610  0.93649628  0.41190989    -0.53800
C688        C  0.61576983  0.96787532  0.36956806     0.10300
H689        H  0.60321543  0.01908509  0.50661940     0.14800
H690        H  0.56464692  0.53724752  0.34285641     0.00500
H691        H  0.50090754  0.91021166  0.44373609     0.15100
H692        H  0.65240413  0.90347475  0.41256058     0.14900
C693        C  0.91161737  0.83079468  0.20628291     0.86700
C694        C  0.85326859  0.84067115  0.21869024    -0.53600
C695        C  0.81815334  0.83675372  0.17835882     0.09600
C696        C  0.84775059  0.82020642  0.12716516     0.20500
C697        C  0.91266810  0.77407931  0.18412173    -0.54300
C698        C  0.88129400  0.76876593  0.14067580     0.09700
C699        C  0.92541073  0.86825808  0.16122607    -0.53800
C700        C  0.89327061  0.86202815  0.11917782     0.10300
H701        H  0.84168754  0.85552388  0.25639824     0.14800
H702        H  0.82048421  0.81516618  0.09345341     0.00500
H703        H  0.94360739  0.74503917  0.19499296     0.15100
H704        H  0.95992091  0.89547717  0.16149232     0.14900
C705        C  0.94549658  0.84343235  0.25068387    -0.18300
C706        C  0.96369477  0.87187150  0.28399731     0.05700
C707        C  0.47814669  0.91342856  0.31829390     0.07600
C708        C  0.49306837  0.94687233  0.34875097    -0.19200
C709        C  0.00959579  0.69260105  0.00078194    -0.18300
C710        C  0.98083165  0.70995235  0.03422880     0.05700
C711        C  0.93950703  0.72380214  0.06896340     0.07600
C712        C  0.90668207  0.73896058  0.09989339    -0.19200
C713        C  0.66227137  0.76390652  0.75068236    -0.18300
C714        C  0.64406946  0.73546784  0.78399439     0.05700
C715        C  0.62961270  0.69391005  0.81828811     0.07600
C716        C  0.61468877  0.66046537  0.84874320    -0.19200
C717        C  0.59816089  0.91472699  0.50078449    -0.18300
C718        C  0.62692705  0.89737388  0.53422812     0.05700
C719        C  0.66825501  0.88352291  0.56895776     0.07600
C720        C  0.70108262  0.86836573  0.59988494    -0.19200
C721        C  0.84814757  0.94259944  0.74900371    -0.18300
C722        C  0.87690843  0.95995499  0.71555531     0.05700
C723        C  0.91823902  0.47380467  0.68081798     0.07600
C724        C  0.95106324  0.48896511  0.64988705    -0.19200
C725        C  0.91226550  0.59344152  0.49909663    -0.18300
C726        C  0.89406965  0.62188455  0.46578654     0.05700
C727        C  0.87962034  0.66344544  0.43149486     0.07600
C728        C  0.86470102  0.69689115  0.40104031    -0.19200
C729        C  0.69550173  0.01388523  0.99910072    -0.18300
C730        C  0.71369718  0.98544234  0.96578966     0.05700
C731        C  0.72814534  0.94388169  0.93149668     0.07600
C732        C  0.74306451  0.91043642  0.90104099    -0.19200
C733        C  0.75961988  0.66473148  0.24900346    -0.18300
C734        C  0.73085705  0.64737459  0.21555775     0.05700
C735        C  0.68953158  0.63351984  0.18082562     0.07600
C736        C  0.65670491  0.61836024  0.14989731    -0.19200
loop_ 
_geom_bond_atom_site_label_1 
_geom_bond_atom_site_label_2 
_geom_bond_distance 
_geom_bond_site_symmetry_2 
_ccdc_geom_bond_type 
O1           Ni9   1.946   1_554  S
O1           C11   1.291       .  A
O2         Ni377   1.982   1_455  S
O2          C564   1.295   1_455  A
O3         Ni377   1.889   1_454  S
O3           C13   1.272       .  A
O4           Ni9   1.897       .  S
O4           C14   1.271       .  A
O5          Ni10   1.946   1_556  S
O5           C14   1.291       .  A
O6         Ni194   1.982   1_545  S
O6          C565   1.295   1_545  A
O7         Ni194   1.892   1_546  S
O7           C12   1.272       .  A
O8          Ni10   1.897       .  S
O8           C11   1.271       .  A
Ni9         O370   1.982       .  S
Ni9         O371   1.889   1_556  S
Ni9         Ni10   2.374   1_556  S
Ni10        O190   1.982       .  S
Ni10        O191   1.892   1_554  S
C11         C148   1.472       .  S
C12         O554   1.295   1_545  A
C12         C119   1.500       .  S
C13         O558   1.295   1_455  A
C13          C31   1.497       .  S
C14          C60   1.472       .  S
O15         Ni23   1.946       .  S
O15          C25   1.291       .  A
O16         Ni23   1.982       .  S
O16          C26   1.295       .  A
O17         Ni23   1.889       .  S
O17          C27   1.272       .  A
O18         Ni23   1.897       .  S
O18          C28   1.271       .  A
O19         Ni24   1.946       .  S
O19          C28   1.291       .  A
O20         Ni24   1.982       .  S
O20          C27   1.295       .  A
O21         Ni24   1.892       .  S
O21          C26   1.272       .  A
O22         Ni24   1.897       .  S
O22          C25   1.271       .  A
Ni23        Ni24   2.374       .  S
C25          C72   1.472       .  S
C26          C55   1.500       .  S
C27         C107   1.497       .  S
C28         C124   1.472       .  S
C29          C30   1.500       .  S
C29          C35   1.529       .  S
C29         C217   1.517       .  S
C29         C177   1.457   1_554  S
C30          H37   1.082   1_554  S
C30          C31   1.362       .  D
C31          C32   1.569       .  S
C32          C36   1.544       .  S
C32         C218   1.560       .  S
C32          H38   1.110       .  S
C33         C213   1.517       .  S
C33          H39   1.088       .  S
C33          C34   1.373       .  D
C34         C216   1.560       .  S
C34         C184   1.433       .  S
C35          H40   1.088       .  S
C35          C36   1.357       .  D
C36         C104   1.472       .  S
C41          C42   1.499       .  S
C41          C47   1.530       .  S
C41          C45   1.515       .  S
C41         C181   1.456       .  S
C42          H49   1.081       .  S
C42          C43   1.363       .  D
C43         C103   1.500       .  S
C43          C44   1.573       .  S
C44          C48   1.542       .  S
C44          C46   1.562       .  S
C44          H50   1.110       .  S
C45          H51   1.088       .  S
C45          C46   1.372       .  D
C46         C176   1.435       .  S
C47          H52   1.088       .  S
C47          C48   1.357       .  D
C48          C90   1.472       .  S
C53          C54   1.499       .  S
C53          C59   1.530       .  S
C53          C57   1.515       .  S
C53         C169   1.456       .  S
C54          H61   1.081       .  S
C54          C55   1.363       .  D
C55          C56   1.573       .  S
C56          C60   1.542       .  S
C56          C58   1.562       .  S
C56          H62   1.110       .  S
C57          H63   1.088       .  S
C57          C58   1.372       .  D
C58         C180   1.435       .  S
C59          H64   1.088       .  S
C59          C60   1.357       .  D
C65          C66   1.500       .  S
C65          C71   1.529       .  S
C65          C69   1.517       .  S
C65         C173   1.457       .  S
C66          H73   1.082       .  S
C66         C435   1.362       .  D
C67          C89   1.497       .  S
C67         C436   1.569       .  S
C67         C434   1.362       .  D
C68          C72   1.544       .  S
C68          C70   1.560       .  S
C68         C435   1.569       .  S
C68         H442   1.110       .  S
C69          H75   1.088   1_545  S
C69          C70   1.373       .  D
C70         C172   1.433   1_545  S
C71          H76   1.088       .  S
C71          C72   1.357       .  D
H74         C436   1.110       .  S
O77         Ni85   1.946       .  S
O77          C87   1.291       .  A
O78         Ni85   1.982       .  S
O78          C88   1.295       .  A
O79         Ni85   1.889       .  S
O79          C89   1.272       .  A
O80         Ni85   1.897       .  S
O80          C90   1.271       .  A
O81         Ni86   1.946       .  S
O81          C90   1.291       .  A
O82         Ni86   1.982       .  S
O82          C89   1.295       .  A
O83         Ni86   1.892       .  S
O83          C88   1.272       .  A
O84         Ni86   1.897       .  S
O84          C87   1.271       .  A
Ni85        Ni86   2.374       .  S
C87         C112   1.472       .  S
C88         C131   1.500       .  S
O91         Ni99   1.946       .  S
O91         C101   1.291       .  A
O92         Ni99   1.982       .  S
O92         C102   1.295       .  A
O93         Ni99   1.892       .  S
O93         C103   1.272       .  A
O94         Ni99   1.897       .  S
O94         C104   1.271       .  A
O95        Ni100   1.946       .  S
O95         C104   1.291       .  A
O96        Ni100   1.982       .  S
O96         C103   1.295       .  A
O97        Ni100   1.889       .  S
O97         C102   1.272       .  A
O98        Ni100   1.897       .  S
O98         C101   1.271       .  A
Ni99       Ni100   2.374       .  S
C101        C136   1.472       .  S
C102        C143   1.497       .  S
C105        C106   1.500       .  S
C105        C111   1.529       .  S
C105        C109   1.517       .  S
C105        C161   1.457       .  S
C106        H113   1.082       .  S
C106        C107   1.362       .  D
C107        C108   1.569       .  S
C108        C112   1.544       .  S
C108        C110   1.560       .  S
C108        H114   1.110       .  S
C109        H115   1.088       .  S
C109        C110   1.373       .  D
C110        C168   1.433       .  S
C111        H116   1.088       .  S
C111        C112   1.357       .  D
C117        C118   1.499       .  S
C117        C123   1.530       .  S
C117        C489   1.515       .  S
C117        C157   1.456   1_556  S
C118        H125   1.081   1_556  S
C118        C119   1.363       .  D
C119        C120   1.573       .  S
C120        C124   1.542       .  S
C120        C490   1.562       .  S
C120        H126   1.110       .  S
C121        C485   1.515       .  S
C121        H127   1.088       .  S
C121        C122   1.372       .  D
C122        C488   1.562       .  S
C122        C164   1.435       .  S
C123        H128   1.088       .  S
C123        C124   1.357       .  D
C129        C130   1.499       .  S
C129        C135   1.530       .  S
C129        C133   1.515       .  S
C129        C165   1.456       .  S
C130        H137   1.081       .  S
C130        C315   1.363       .  D
C131        C316   1.573       .  S
C131        C314   1.363       .  D
C132        C136   1.542       .  S
C132        C134   1.562       .  S
C132        C315   1.573       .  S
C132        H322   1.110       .  S
C133        H139   1.088       .  S
C133        C134   1.372       .  D
C134        C156   1.435   1_455  S
C135        H140   1.088       .  S
C135        C136   1.357       .  D
H138        C316   1.110       .  S
C141        C142   1.500       .  S
C141        C147   1.529       .  S
C141        C145   1.517       .  S
C141        C153   1.457       .  S
C142        H149   1.082       .  S
C142        C143   1.362       .  D
C143        C144   1.569       .  S
C144        C148   1.544       .  S
C144        C146   1.560       .  S
C144        H150   1.110       .  S
C145        H151   1.088       .  S
C145        C146   1.373       .  D
C146        C160   1.433       .  S
C147        H152   1.088       .  S
C147        C148   1.357       .  D
C153        C154   1.201       .  T
C154        C523   1.406       .  S
C155        C156   1.202       .  T
C155        C522   1.406       .  S
C157        C158   1.201       .  T
C158        C159   1.405       .  S
C159        C160   1.201       .  T
C161        C162   1.201       .  T
C162        C163   1.406       .  S
C163        C164   1.202       .  T
C165        C166   1.201       .  T
C166        C167   1.405       .  S
C167        C168   1.201       .  T
C169        C170   1.201       .  T
C170        C355   1.405       .  S
C171        C172   1.201       .  T
C171        C354   1.405       .  S
C173        C174   1.201       .  T
C174        C175   1.406       .  S
C175        C176   1.202       .  T
C177        C178   1.201       .  T
C178        C179   1.406       .  S
C179        C180   1.202       .  T
C181        C182   1.201       .  T
C182        C183   1.405       .  S
C183        C184   1.201       .  T
O185       Ni193   1.946   1_554  S
O185        C195   1.291       .  A
O186       Ni561   1.982   1_455  S
O186        C380   1.295   1_465  A
O187       Ni561   1.889   1_454  S
O187        C197   1.272       .  A
O188       Ni193   1.897       .  S
O188        C198   1.271       .  A
O189       Ni194   1.946   1_556  S
O189        C198   1.291       .  A
O190        C381   1.295       .  A
O191        C196   1.272       .  A
O192       Ni194   1.897       .  S
O192        C195   1.271       .  A
Ni193       O554   1.982       .  S
Ni193       O555   1.889   1_556  S
Ni193      Ni194   2.374   1_556  S
C195        C332   1.472       .  S
C196        O370   1.295       .  A
C196        C303   1.500       .  S
C197        O374   1.295   1_465  A
C197        C215   1.497   1_565  S
C198        C244   1.472       .  S
O199       Ni207   1.946       .  S
O199        C209   1.291       .  A
O200       Ni207   1.982       .  S
O200        C210   1.295       .  A
O201       Ni207   1.889       .  S
O201        C211   1.272       .  A
O202       Ni207   1.897       .  S
O202        C212   1.271       .  A
O203       Ni208   1.946       .  S
O203        C212   1.291       .  A
O204       Ni208   1.982       .  S
O204        C211   1.295       .  A
O205       Ni208   1.892       .  S
O205        C210   1.272       .  A
O206       Ni208   1.897       .  S
O206        C209   1.271       .  A
Ni207      Ni208   2.374       .  S
C209        C256   1.472       .  S
C210        C239   1.500       .  S
C211        C291   1.497       .  S
C212        C308   1.472       .  S
C213        C214   1.500       .  S
C213        C219   1.529   1_545  S
C213        C361   1.457   1_554  S
C214        H221   1.082   1_554  S
C214        C215   1.362       .  D
C215        C216   1.569       .  S
C216        C220   1.544   1_545  S
C216        H222   1.110       .  S
C217        H223   1.088       .  S
C217        C218   1.373       .  D
C218        C368   1.433       .  S
C219        H224   1.088       .  S
C219        C220   1.357       .  D
C220        C288   1.472       .  S
C225        C226   1.499       .  S
C225        C231   1.530       .  S
C225        C229   1.515       .  S
C225        C365   1.456       .  S
C226        H233   1.081       .  S
C226        C227   1.363       .  D
C227        C287   1.500       .  S
C227        C228   1.573       .  S
C228        C232   1.542       .  S
C228        C230   1.562       .  S
C228        H234   1.110       .  S
C229        H235   1.088       .  S
C229        C230   1.372       .  D
C230        C360   1.435       .  S
C231        H236   1.088       .  S
C231        C232   1.357       .  D
C232        C274   1.472       .  S
C237        C238   1.499       .  S
C237        C243   1.530       .  S
C237        C241   1.515       .  S
C237        C353   1.456       .  S
C238        H245   1.081       .  S
C238        C239   1.363       .  D
C239        C240   1.573       .  S
C240        C244   1.542       .  S
C240        C242   1.562       .  S
C240        H246   1.110       .  S
C241        H247   1.088       .  S
C241        C242   1.372       .  D
C242        C364   1.435       .  S
C243        H248   1.088       .  S
C243        C244   1.357       .  D
C249        C250   1.500       .  S
C249        C255   1.529       .  S
C249        C253   1.517       .  S
C249        C357   1.457       .  S
C250        H257   1.082       .  S
C250        C619   1.362       .  D
C251        C273   1.497       .  S
C251        C620   1.569       .  S
C251        C618   1.362       .  D
C252        C619   1.569       .  S
C252        C256   1.544       .  S
C252        C254   1.560       .  S
C252        H626   1.110       .  S
C253        H259   1.088       .  S
C253        C254   1.373       .  D
C254        C356   1.433       .  S
C255        H260   1.088       .  S
C255        C256   1.357       .  D
H258        C620   1.110       .  S
O261       Ni269   1.946       .  S
O261        C271   1.291       .  A
O262       Ni269   1.982       .  S
O262        C272   1.295       .  A
O263       Ni269   1.889       .  S
O263        C273   1.272       .  A
O264       Ni269   1.897       .  S
O264        C274   1.271       .  A
O265       Ni270   1.946       .  S
O265        C274   1.291       .  A
O266       Ni270   1.982       .  S
O266        C273   1.295       .  A
O267       Ni270   1.892       .  S
O267        C272   1.272       .  A
O268       Ni270   1.897       .  S
O268        C271   1.271       .  A
Ni269      Ni270   2.374       .  S
C271        C296   1.472       .  S
C272        C315   1.500       .  S
O275       Ni283   1.946       .  S
O275        C285   1.291       .  A
O276       Ni283   1.982       .  S
O276        C286   1.295       .  A
O277       Ni283   1.892       .  S
O277        C287   1.272       .  A
O278       Ni283   1.897       .  S
O278        C288   1.271       .  A
O279       Ni284   1.946       .  S
O279        C288   1.291       .  A
O280       Ni284   1.982       .  S
O280        C287   1.295       .  A
O281       Ni284   1.889       .  S
O281        C286   1.272       .  A
O282       Ni284   1.897       .  S
O282        C285   1.271       .  A
Ni283      Ni284   2.374       .  S
C285        C320   1.472       .  S
C286        C327   1.497       .  S
C289        C290   1.500       .  S
C289        C295   1.529       .  S
C289        C293   1.517       .  S
C289        C345   1.457       .  S
C290        H297   1.082       .  S
C290        C291   1.362       .  D
C291        C292   1.569       .  S
C292        C296   1.544       .  S
C292        C294   1.560       .  S
C292        H298   1.110       .  S
C293        H299   1.088       .  S
C293        C294   1.373       .  D
C294        C352   1.433       .  S
C295        H300   1.088       .  S
C295        C296   1.357       .  D
C301        C302   1.499       .  S
C301        C307   1.530       .  S
C301        C673   1.515       .  S
C301        C341   1.456   1_556  S
C302        H309   1.081   1_556  S
C302        C303   1.363       .  D
C303        C304   1.573       .  S
C304        C308   1.542       .  S
C304        C674   1.562       .  S
C304        H310   1.110       .  S
C305        C669   1.515       .  S
C305        H311   1.088       .  S
C305        C306   1.372       .  D
C306        C672   1.562       .  S
C306        C348   1.435       .  S
C307        H312   1.088       .  S
C307        C308   1.357       .  D
C313        C314   1.499   1_565  S
C313        C319   1.530       .  S
C313        C317   1.515       .  S
C313        C349   1.456       .  S
C314        H321   1.081       .  S
C316        C320   1.542   1_545  S
C316        C318   1.562   1_545  S
C317        H323   1.088       .  S
C317        C318   1.372       .  D
C318        C340   1.435   1_455  S
C319        H324   1.088       .  S
C319        C320   1.357       .  D
C325        C326   1.500       .  S
C325        C331   1.529       .  S
C325        C329   1.517       .  S
C325        C337   1.457       .  S
C326        H333   1.082       .  S
C326        C327   1.362       .  D
C327        C328   1.569       .  S
C328        C332   1.544       .  S
C328        C330   1.560       .  S
C328        H334   1.110       .  S
C329        H335   1.088       .  S
C329        C330   1.373       .  D
C330        C344   1.433       .  S
C331        H336   1.088       .  S
C331        C332   1.357       .  D
C337        C338   1.201       .  T
C338        C707   1.406       .  S
C339        C340   1.202       .  T
C339        C706   1.406       .  S
C341        C342   1.201       .  T
C342        C343   1.405       .  S
C343        C344   1.201       .  T
C345        C346   1.201       .  T
C346        C347   1.406       .  S
C347        C348   1.202       .  T
C349        C350   1.201       .  T
C350        C351   1.405       .  S
C351        C352   1.201       .  T
C353        C354   1.201       .  T
C355        C356   1.201       .  T
C357        C358   1.201       .  T
C358        C359   1.406       .  S
C359        C360   1.202       .  T
C361        C362   1.201   1_545  T
C362        C363   1.406       .  S
C363        C364   1.202       .  T
C365        C366   1.201       .  T
C366        C367   1.405       .  S
C367        C368   1.201       .  T
O369       Ni377   1.946   1_554  S
O369        C379   1.291       .  A
O371        C381   1.272       .  A
O372       Ni377   1.897       .  S
O372        C382   1.271       .  A
O373       Ni378   1.946   1_556  S
O373        C382   1.291       .  A
O374       Ni562   1.982   1_545  S
O375       Ni562   1.892   1_546  S
O375        C380   1.272       .  A
O376       Ni378   1.897       .  S
O376        C379   1.271       .  A
Ni377      Ni378   2.374   1_556  S
Ni378       O558   1.982       .  S
Ni378       O559   1.892   1_554  S
C379        C516   1.472       .  S
C380        C487   1.500   1_655  S
C381        C399   1.497       .  S
C382        C428   1.472       .  S
O383       Ni391   1.946       .  S
O383        C393   1.291       .  A
O384       Ni391   1.982       .  S
O384        C394   1.295       .  A
O385       Ni391   1.889       .  S
O385        C395   1.272       .  A
O386       Ni391   1.897       .  S
O386        C396   1.271       .  A
O387       Ni392   1.946       .  S
O387        C396   1.291       .  A
O388       Ni392   1.982       .  S
O388        C395   1.295       .  A
O389       Ni392   1.892       .  S
O389        C394   1.272       .  A
O390       Ni392   1.897       .  S
O390        C393   1.271       .  A
Ni391      Ni392   2.374       .  S
C393        C440   1.472       .  S
C394        C423   1.500       .  S
C395        C475   1.497       .  S
C396        C492   1.472       .  S
C397        C398   1.500       .  S
C397        C403   1.529       .  S
C397        C585   1.517       .  S
C397        C545   1.457   1_554  S
C398        H405   1.082   1_554  S
C398        C399   1.362       .  D
C399        C400   1.569       .  S
C400        C404   1.544       .  S
C400        C586   1.560       .  S
C400        H406   1.110       .  S
C401        C581   1.517       .  S
C401        H407   1.088       .  S
C401        C402   1.373       .  D
C402        C584   1.560       .  S
C402        C552   1.433       .  S
C403        H408   1.088       .  S
C403        C404   1.357       .  D
C404        C472   1.472       .  S
C409        C410   1.499       .  S
C409        C415   1.530       .  S
C409        C413   1.515       .  S
C409        C549   1.456       .  S
C410        H417   1.081       .  S
C410        C411   1.363       .  D
C411        C471   1.500       .  S
C411        C412   1.573       .  S
C412        C416   1.542       .  S
C412        C414   1.562       .  S
C412        H418   1.110       .  S
C413        H419   1.088       .  S
C413        C414   1.372       .  D
C414        C544   1.435       .  S
C415        H420   1.088       .  S
C415        C416   1.357       .  D
C416        C458   1.472       .  S
C421        C422   1.499       .  S
C421        C427   1.530       .  S
C421        C425   1.515       .  S
C421        C537   1.456       .  S
C422        H429   1.081       .  S
C422        C423   1.363       .  D
C423        C424   1.573       .  S
C424        C428   1.542       .  S
C424        C426   1.562       .  S
C424        H430   1.110       .  S
C425        H431   1.088       .  S
C425        C426   1.372       .  D
C426        C548   1.435       .  S
C427        H432   1.088       .  S
C427        C428   1.357       .  D
C433        C434   1.500   1_655  S
C433        C439   1.529       .  S
C433        C437   1.517       .  S
C433        C541   1.457       .  S
C434        H441   1.082       .  S
C435        C457   1.497       .  S
C436        C440   1.544   1_455  S
C436        C438   1.560   1_455  S
C437        H443   1.088   1_545  S
C437        C438   1.373       .  D
C438        C540   1.433   1_545  S
C439        H444   1.088       .  S
C439        C440   1.357       .  D
O445       Ni453   1.946       .  S
O445        C455   1.291       .  A
O446       Ni453   1.982       .  S
O446        C456   1.295       .  A
O447       Ni453   1.889       .  S
O447        C457   1.272       .  A
O448       Ni453   1.897       .  S
O448        C458   1.271       .  A
O449       Ni454   1.946       .  S
O449        C458   1.291       .  A
O450       Ni454   1.982       .  S
O450        C457   1.295       .  A
O451       Ni454   1.892       .  S
O451        C456   1.272       .  A
O452       Ni454   1.897       .  S
O452        C455   1.271       .  A
Ni453      Ni454   2.374       .  S
C455        C480   1.472       .  S
C456        C499   1.500       .  S
O459       Ni467   1.946       .  S
O459        C469   1.291       .  A
O460       Ni467   1.982       .  S
O460        C470   1.295       .  A
O461       Ni467   1.892       .  S
O461        C471   1.272       .  A
O462       Ni467   1.897       .  S
O462        C472   1.271       .  A
O463       Ni468   1.946       .  S
O463        C472   1.291       .  A
O464       Ni468   1.982       .  S
O464        C471   1.295       .  A
O465       Ni468   1.889       .  S
O465        C470   1.272       .  A
O466       Ni468   1.897       .  S
O466        C469   1.271       .  A
Ni467      Ni468   2.374       .  S
C469        C504   1.472       .  S
C470        C511   1.497       .  S
C473        C474   1.500       .  S
C473        C479   1.529       .  S
C473        C477   1.517       .  S
C473        C529   1.457       .  S
C474        H481   1.082       .  S
C474        C475   1.362       .  D
C475        C476   1.569       .  S
C476        C480   1.544       .  S
C476        C478   1.560       .  S
C476        H482   1.110       .  S
C477        H483   1.088       .  S
C477        C478   1.373       .  D
C478        C536   1.433       .  S
C479        H484   1.088       .  S
C479        C480   1.357       .  D
C485        C486   1.499       .  S
C485        C491   1.530   1_455  S
C485        C525   1.456   1_556  S
C486        H493   1.081   1_556  S
C486        C487   1.363       .  D
C487        C488   1.573       .  S
C488        C492   1.542   1_455  S
C488        H494   1.110       .  S
C489        H495   1.088       .  S
C489        C490   1.372       .  D
C490        C532   1.435       .  S
C491        H496   1.088       .  S
C491        C492   1.357       .  D
C497        C498   1.499       .  S
C497        C503   1.530       .  S
C497        C501   1.515       .  S
C497        C533   1.456       .  S
C498        H505   1.081       .  S
C498        C683   1.363       .  D
C499        C684   1.573       .  S
C499        C682   1.363       .  D
C500        C683   1.573       .  S
C500        C504   1.542       .  S
C500        C502   1.562       .  S
C500        H690   1.110       .  S
C501        H507   1.088       .  S
C501        C502   1.372       .  D
C502        C524   1.435       .  S
C503        H508   1.088       .  S
C503        C504   1.357       .  D
H506        C684   1.110       .  S
C509        C510   1.500       .  S
C509        C515   1.529       .  S
C509        C513   1.517       .  S
C509        C521   1.457       .  S
C510        H517   1.082       .  S
C510        C511   1.362       .  D
C511        C512   1.569       .  S
C512        C516   1.544       .  S
C512        C514   1.560       .  S
C512        H518   1.110       .  S
C513        H519   1.088       .  S
C513        C514   1.373       .  D
C514        C528   1.433       .  S
C515        H520   1.088       .  S
C515        C516   1.357       .  D
C521        C522   1.201       .  T
C523        C524   1.202       .  T
C525        C526   1.201   1_455  T
C526        C527   1.405       .  S
C527        C528   1.201       .  T
C529        C530   1.201       .  T
C530        C531   1.406       .  S
C531        C532   1.202       .  T
C533        C534   1.201       .  T
C534        C535   1.405       .  S
C535        C536   1.201       .  T
C537        C538   1.201       .  T
C538        C723   1.405       .  S
C539        C540   1.201       .  T
C539        C722   1.405       .  S
C541        C542   1.201       .  T
C542        C543   1.406       .  S
C543        C544   1.202       .  T
C545        C546   1.201       .  T
C546        C547   1.406       .  S
C547        C548   1.202       .  T
C549        C550   1.201       .  T
C550        C551   1.405       .  S
C551        C552   1.201       .  T
O553       Ni561   1.946   1_554  S
O553        C563   1.291       .  A
O555        C565   1.272       .  A
O556       Ni561   1.897       .  S
O556        C566   1.271       .  A
O557       Ni562   1.946   1_556  S
O557        C566   1.291       .  A
O559        C564   1.272       .  A
O560       Ni562   1.897       .  S
O560        C563   1.271       .  A
Ni561      Ni562   2.374   1_556  S
C563        C700   1.472       .  S
C564        C671   1.500   1_655  S
C565        C583   1.497   1_565  S
C566        C612   1.472       .  S
O567       Ni575   1.946       .  S
O567        C577   1.291       .  A
O568       Ni575   1.982       .  S
O568        C578   1.295       .  A
O569       Ni575   1.889       .  S
O569        C579   1.272       .  A
O570       Ni575   1.897       .  S
O570        C580   1.271       .  A
O571       Ni576   1.946       .  S
O571        C580   1.291       .  A
O572       Ni576   1.982       .  S
O572        C579   1.295       .  A
O573       Ni576   1.892       .  S
O573        C578   1.272       .  A
O574       Ni576   1.897       .  S
O574        C577   1.271       .  A
Ni575      Ni576   2.374       .  S
C577        C624   1.472       .  S
C578        C607   1.500       .  S
C579        C659   1.497       .  S
C580        C676   1.472       .  S
C581        C582   1.500       .  S
C581        C587   1.529   1_545  S
C581        C729   1.457   1_554  S
C582        H589   1.082   1_554  S
C582        C583   1.362       .  D
C583        C584   1.569       .  S
C584        C588   1.544   1_545  S
C584        H590   1.110       .  S
C585        H591   1.088       .  S
C585        C586   1.373       .  D
C586        C736   1.433       .  S
C587        H592   1.088       .  S
C587        C588   1.357       .  D
C588        C656   1.472       .  S
C593        C594   1.499       .  S
C593        C599   1.530       .  S
C593        C597   1.515       .  S
C593        C733   1.456       .  S
C594        H601   1.081       .  S
C594        C595   1.363       .  D
C595        C655   1.500       .  S
C595        C596   1.573       .  S
C596        C600   1.542       .  S
C596        C598   1.562       .  S
C596        H602   1.110       .  S
C597        H603   1.088       .  S
C597        C598   1.372       .  D
C598        C728   1.435       .  S
C599        H604   1.088       .  S
C599        C600   1.357       .  D
C600        C642   1.472       .  S
C605        C606   1.499       .  S
C605        C611   1.530       .  S
C605        C609   1.515       .  S
C605        C721   1.456       .  S
C606        H613   1.081       .  S
C606        C607   1.363       .  D
C607        C608   1.573       .  S
C608        C612   1.542       .  S
C608        C610   1.562       .  S
C608        H614   1.110       .  S
C609        H615   1.088       .  S
C609        C610   1.372       .  D
C610        C732   1.435       .  S
C611        H616   1.088       .  S
C611        C612   1.357       .  D
C617        C618   1.500   1_655  S
C617        C623   1.529       .  S
C617        C621   1.517       .  S
C617        C725   1.457       .  S
C618        H625   1.082       .  S
C619        C641   1.497       .  S
C620        C624   1.544   1_455  S
C620        C622   1.560   1_455  S
C621        H627   1.088       .  S
C621        C622   1.373       .  D
C622        C724   1.433       .  S
C623        H628   1.088       .  S
C623        C624   1.357       .  D
O629       Ni637   1.946       .  S
O629        C639   1.291       .  A
O630       Ni637   1.982       .  S
O630        C640   1.295       .  A
O631       Ni637   1.889       .  S
O631        C641   1.272       .  A
O632       Ni637   1.897       .  S
O632        C642   1.271       .  A
O633       Ni638   1.946       .  S
O633        C642   1.291       .  A
O634       Ni638   1.982       .  S
O634        C641   1.295       .  A
O635       Ni638   1.892       .  S
O635        C640   1.272       .  A
O636       Ni638   1.897       .  S
O636        C639   1.271       .  A
Ni637      Ni638   2.374       .  S
C639        C664   1.472       .  S
C640        C683   1.500       .  S
O643       Ni651   1.946       .  S
O643        C653   1.291       .  A
O644       Ni651   1.982       .  S
O644        C654   1.295       .  A
O645       Ni651   1.892       .  S
O645        C655   1.272       .  A
O646       Ni651   1.897       .  S
O646        C656   1.271       .  A
O647       Ni652   1.946       .  S
O647        C656   1.291       .  A
O648       Ni652   1.982       .  S
O648        C655   1.295       .  A
O649       Ni652   1.889       .  S
O649        C654   1.272       .  A
O650       Ni652   1.897       .  S
O650        C653   1.271       .  A
Ni651      Ni652   2.374       .  S
C653        C688   1.472       .  S
C654        C695   1.497       .  S
C657        C658   1.500       .  S
C657        C663   1.529       .  S
C657        C661   1.517       .  S
C657        C713   1.457       .  S
C658        H665   1.082       .  S
C658        C659   1.362       .  D
C659        C660   1.569       .  S
C660        C664   1.544       .  S
C660        C662   1.560       .  S
C660        H666   1.110       .  S
C661        H667   1.088       .  S
C661        C662   1.373       .  D
C662        C720   1.433       .  S
C663        H668   1.088       .  S
C663        C664   1.357       .  D
C669        C670   1.499       .  S
C669        C675   1.530   1_455  S
C669        C709   1.456   1_556  S
C670        H677   1.081   1_556  S
C670        C671   1.363       .  D
C671        C672   1.573       .  S
C672        C676   1.542   1_455  S
C672        H678   1.110       .  S
C673        H679   1.088       .  S
C673        C674   1.372       .  D
C674        C716   1.435       .  S
C675        H680   1.088       .  S
C675        C676   1.357       .  D
C681        C682   1.499   1_565  S
C681        C687   1.530       .  S
C681        C685   1.515       .  S
C681        C717   1.456       .  S
C682        H689   1.081       .  S
C684        C688   1.542   1_545  S
C684        C686   1.562   1_545  S
C685        H691   1.088       .  S
C685        C686   1.372       .  D
C686        C708   1.435       .  S
C687        H692   1.088       .  S
C687        C688   1.357       .  D
C693        C694   1.500       .  S
C693        C699   1.529       .  S
C693        C697   1.517       .  S
C693        C705   1.457       .  S
C694        H701   1.082       .  S
C694        C695   1.362       .  D
C695        C696   1.569       .  S
C696        C700   1.544       .  S
C696        C698   1.560       .  S
C696        H702   1.110       .  S
C697        H703   1.088       .  S
C697        C698   1.373       .  D
C698        C712   1.433       .  S
C699        H704   1.088       .  S
C699        C700   1.357       .  D
C705        C706   1.201       .  T
C707        C708   1.202       .  T
C709        C710   1.201   1_455  T
C710        C711   1.405       .  S
C711        C712   1.201       .  T
C713        C714   1.201       .  T
C714        C715   1.406       .  S
C715        C716   1.202       .  T
C717        C718   1.201       .  T
C718        C719   1.405       .  S
C719        C720   1.201       .  T
C721        C722   1.201       .  T
C723        C724   1.201       .  T
C725        C726   1.201       .  T
C726        C727   1.406       .  S
C727        C728   1.202       .  T
C729        C730   1.201   1_545  T
C730        C731   1.406       .  S
C731        C732   1.202       .  T
C733        C734   1.201       .  T
C734        C735   1.405       .  S
C735        C736   1.201       .  T
