geometry optimzed in LAMMPS
_audit_creation_date              2020-11-30 
_audit_creation_method            'lammps2cif' 
_symmetry_space_group_name_H-M    'P1' 
_symmetry_Int_Tables_number       1 
_symmetry_cell_setting            triclinic 
loop_ 
_symmetry_equiv_pos_as_xyz 
  x,y,z 
_cell_length_a                    35.08921637 
_cell_length_b                    35.12205802634774 
_cell_length_c                    86.40044212603618 
_cell_angle_alpha                 89.96769979207997 
_cell_angle_beta                  90.07991943078056 
_cell_angle_gamma                 120.10086308000376 
loop_ 
_atom_site_label 
_atom_site_type_symbol 
_atom_site_fract_x 
_atom_site_fract_y 
_atom_site_fract_z 
_atom_site_charge 
C1          C  0.66371616  0.08337989  0.71815817     0.79800
N2          N  0.62941905  0.04263281  0.71510855    -0.78500
C3          C  0.63118954  0.01784110  0.70341286     0.82200
N4          N  0.66823839  0.03402578  0.69464601    -0.78500
C5          C  0.70291648  0.07494487  0.69745797     0.82300
N6          N  0.70044360  0.09953348  0.70920220    -0.80200
C7          C  0.78129095  0.08718664  0.66630545     0.79800
N8          N  0.81617212  0.12706968  0.66990102    -0.78500
C9          C  0.81494278  0.14991868  0.68233186     0.82200
N10         N  0.77803967  0.13286068  0.69117508    -0.78500
C11         C  0.74290697  0.09269922  0.68782992     0.82300
N12         N  0.74465787  0.06975927  0.67537763    -0.80200
C13         C  0.50017727  0.75728866  0.83236812     0.79800
N14         N  0.50341957  0.79605553  0.83642257    -0.78500
C15         C  0.52538361  0.81763866  0.84939225     0.82200
N16         N  0.54546158  0.80061306  0.85818176    -0.78500
C17         C  0.54223174  0.76155815  0.85424461     0.82300
N18         N  0.51920146  0.73980757  0.84139244    -0.80200
C19         C  0.61244625  0.75014256  0.88381717     0.79800
N20         N  0.59016969  0.76612486  0.87578187    -0.78500
C21         C  0.56462516  0.74340823  0.86348634     0.82200
N22         N  0.56068810  0.70414686  0.85949254    -0.78500
C23         C  0.58285246  0.68800332  0.86748298     0.82300
N24         N  0.60879491  0.71118176  0.87960823    -0.80200
C25         C  0.83957503  0.42517992  0.49760227     0.79800
N26         N  0.84719881  0.46614854  0.50101922    -0.78500
C27         C  0.87024193  0.48749619  0.51386391     0.82200
N28         N  0.88608857  0.46790513  0.52335612    -0.78500
C29         C  0.87931171  0.42716314  0.51999258     0.82300
N30         N  0.85563530  0.40561487  0.50715730    -0.80200
C31         C  0.94396311  0.41424664  0.55142343     0.79800
N32         N  0.92370712  0.43065830  0.54246114    -0.78500
C33         C  0.89972308  0.40800562  0.52985271     0.82200
N34         N  0.89666218  0.36893964  0.52607459    -0.78500
C35         C  0.91778407  0.35288850  0.53479402     0.82300
N36         N  0.94091154  0.37550843  0.54743724    -0.80200
C37         C  0.44380033  0.43011865  0.99585918     0.79800
N38         N  0.40955785  0.41084582  0.00588104    -0.78500
C39         C  0.40967808  0.43192146  0.01909434     0.82200
N40         N  0.44512654  0.47188141  0.02251704    -0.78500
C41         C  0.48022444  0.49078559  0.01272571     0.82300
N42         N  0.47881116  0.47002300  0.99930840    -0.80200
C43         C  0.33305096  0.41253159  0.05176706     0.79800
N44         N  0.36823210  0.43267710  0.04204384    -0.78500
C45         C  0.37184387  0.41063158  0.02967914     0.82200
N46         N  0.33989149  0.36839421  0.02695699    -0.78500
C47         C  0.30510195  0.34783896  0.03667736     0.82300
N48         N  0.30176653  0.37003057  0.04895004    -0.80200
C49         C  0.98677988  0.75119689  0.38090970     0.79800
N50         N  0.95490687  0.70892264  0.37813898    -0.78500
C51         C  0.95877430  0.68601803  0.36618243     0.82200
N52         N  0.99452769  0.70556891  0.35683468    -0.78500
C53         C  0.02667841  0.74767940  0.35949952     0.82300
N54         N  0.02268259  0.77048535  0.37151715    -0.80200
C55         C  0.10736098  0.76287651  0.32903980     0.79800
N56         N  0.06999532  0.74486086  0.33769325    -0.78500
C57         C  0.06641467  0.76759085  0.34984171     0.82200
N58         N  0.10056144  0.80809324  0.35343396    -0.78500
C59         C  0.13798980  0.82615730  0.34487532     0.82300
N60         N  0.14114662  0.80324976  0.33281522    -0.80200
C61         C  0.15210748  0.08397518  0.16904075     0.79800
N62         N  0.16943706  0.06541766  0.17840708    -0.78500
C63         C  0.19748478  0.08938640  0.18999902     0.82200
N64         N  0.20854631  0.13206806  0.19201926    -0.78500
C65         C  0.19160115  0.15097171  0.18267795     0.82300
N66         N  0.16363438  0.12664720  0.17116838    -0.80200
C67         C  0.26287237  0.07632810  0.22097472     0.79800
N68         N  0.24420131  0.09397381  0.21183163    -0.78500
C69         C  0.21636500  0.06966806  0.20020447     0.82200
N70         N  0.20699426  0.02750396  0.19785921    -0.78500
C71         C  0.22489458  0.00946373  0.20722254     0.82300
N72         N  0.25284293  0.03422828  0.21860695    -0.80200
C73         C  0.05411038  0.68684987  0.83565562     0.79800
N74         N  0.06972841  0.72578400  0.84329040    -0.78500
C75         C  0.04591403  0.72985029  0.85495618     0.82200
N76         N  0.00597975  0.69509176  0.85872356    -0.78500
C77         C  0.98991728  0.65635222  0.85103431     0.82300
N78         N  0.01403114  0.65258515  0.83948733    -0.80200
C79         C  0.05723760  0.81237359  0.88414953     0.79800
N80         N  0.04066848  0.77429375  0.87592758    -0.78500
C81         C  0.06294516  0.77162262  0.86344815     0.82200
N82         N  0.10161687  0.80740588  0.85913220    -0.78500
C83         C  0.11773686  0.84580184  0.86710070     0.82300
N84         N  0.09566447  0.84773124  0.87964674    -0.80200
C85         C  0.71211999  0.64119987  0.66571960     0.79800
N86         N  0.73113674  0.62414551  0.67504224    -0.78500
C87         C  0.71094705  0.60303670  0.68840635     0.82200
N88         N  0.67191875  0.59963392  0.69248535    -0.78500
C89         C  0.65372255  0.61808044  0.68346201     0.82300
N90         N  0.67384781  0.63842180  0.67013807    -0.80200
C91         C  0.72667889  0.53728276  0.71889622     0.79800
N92         N  0.70787736  0.55551177  0.70999990    -0.78500
C93         C  0.73125126  0.58388956  0.69833789     0.82200
N94         N  0.77370700  0.59453400  0.69580717    -0.78500
C95         C  0.79310655  0.57765436  0.70496060     0.82300
N96         N  0.76929038  0.54889518  0.71633542    -0.80200
C97         C  0.37724063  0.36837360  0.49571465     0.79800
N98         N  0.39186316  0.40662109  0.50366051    -0.78500
C99         C  0.36617017  0.41013570  0.51472596     0.82200
N100        N  0.32539671  0.37534544  0.51757719    -0.78500
C101        C  0.31040006  0.33701594  0.50962603     0.82300
N102        N  0.33652522  0.33392336  0.49870346    -0.80200
C103        C  0.37558718  0.49246247  0.54397128     0.79800
N104        N  0.35920274  0.45448433  0.53560849    -0.78500
C105        C  0.38305676  0.45115558  0.52375807     0.82200
N106        N  0.42380611  0.48548822  0.52060804    -0.78500
C107        C  0.44039788  0.52338443  0.52883874     0.82300
N108        N  0.41630422  0.52666039  0.54051702    -0.80200
C109        C  0.38084624  0.96749766  0.99772802     0.79800
N110        N  0.33960063  0.95931945  0.00097374    -0.78500
C111        C  0.31659096  0.93306292  0.01301161     0.82200
N112        N  0.33564672  0.91580104  0.02213281    -0.78500
C113        C  0.37687879  0.92355528  0.01893101     0.82300
N114        N  0.39935176  0.94918595  0.00663132    -0.80200
C115        C  0.39672419  0.87089651  0.05256329     0.79800
N116        N  0.37712222  0.88557002  0.04256910    -0.78500
C117        C  0.39760851  0.90595811  0.02921827     0.82200
N118        N  0.43768759  0.91103992  0.02573880    -0.78500
C119        C  0.45689536  0.89523047  0.03549147     0.82300
N120        N  0.43645670  0.87555202  0.04892930    -0.80200
C121        C  0.05231049  0.19432953  0.38474472     0.79800
N122        N  0.03758631  0.21683541  0.37621389    -0.78500
C123        C  0.06298242  0.24414171  0.36465850     0.82200
N124        N  0.10366008  0.24956811  0.36193454    -0.78500
C125        C  0.11899891  0.22802198  0.37077352     0.82300
N126        N  0.09282241  0.20007256  0.38194781    -0.80200
C127        C  0.05257025  0.31102068  0.33341473     0.79800
N128        N  0.06877423  0.29057358  0.34240648    -0.78500
C129        C  0.04618182  0.26733297  0.35512739     0.82200
N130        N  0.00708324  0.26438550  0.35876600    -0.78500
C131        C  0.99093191  0.28517934  0.34997780     0.82300
N132        N  0.01359053  0.30787413  0.33728209    -0.80200
C133        C  0.73502993  0.13632850  0.22323840     0.79800
N134        N  0.71653340  0.10151254  0.21331183    -0.78500
C135        C  0.73904932  0.10107134  0.20052298     0.82200
N136        N  0.77988306  0.13580051  0.19767876    -0.78500
C137        C  0.79819723  0.17081424  0.20744927     0.82300
N138        N  0.77551624  0.17097042  0.22011360    -0.80200
C139        C  0.72632714  0.02707491  0.16776839     0.79800
N140        N  0.74360846  0.06217840  0.17753832    -0.78500
C141        C  0.71975671  0.06319278  0.18982087     0.82200
N142        N  0.67844521  0.02871244  0.19230819    -0.78500
C143        C  0.66122256  0.99331689  0.18267768     0.82300
N144        N  0.68526179  0.99290706  0.17047703    -0.80200
C145        C  0.50279747  0.69642152  0.33240462     0.79800
N146        N  0.50868927  0.66213553  0.33593318    -0.78500
C147        C  0.53185898  0.66326214  0.34865332     0.82200
N148        N  0.54884195  0.69902748  0.35806673    -0.78500
C149        C  0.54261160  0.73339424  0.35474891     0.82300
N150        N  0.51939761  0.73193807  0.34192629    -0.80200
C151        C  0.60694404  0.81151927  0.38592337     0.79800
N152        N  0.59813713  0.84437004  0.38325664    -0.78500
C153        C  0.57123042  0.84153692  0.37149629     0.82200
N154        N  0.55321812  0.80549291  0.36219181    -0.78500
C155        C  0.56149107  0.77214148  0.36487447     0.82300
N156        N  0.58817295  0.77517250  0.37680201    -0.80200
C157        C  0.29041803  0.15637639  0.71361828     0.79800
N158        N  0.27392489  0.12014235  0.70444563    -0.78500
C159        C  0.24645373  0.11503715  0.69251527     0.82200
N160        N  0.23471352  0.14597981  0.68994131    -0.78500
C161        C  0.25000595  0.18169662  0.69933066     0.82300
N162        N  0.27804418  0.18680837  0.71105865    -0.80200
C163        C  0.18234866  0.03282280  0.66225238     0.79800
N164        N  0.18887256  0.99938807  0.66653153    -0.78500
C165        C  0.21464489  0.00327140  0.67881156     0.82200
N166        N  0.23388085  0.04117076  0.68712082    -0.78500
C167        C  0.22762594  0.07504265  0.68300731     0.82300
N168        N  0.20203567  0.07082228  0.67054019    -0.80200
C169        C  0.44689291  0.97055414  0.49891800     0.79800
N170        N  0.41227804  0.95576278  0.50885996    -0.78500
C171        C  0.40933802  0.93020123  0.52117568     0.82200
N172        N  0.44095904  0.91917423  0.52341963    -0.78500
C173        C  0.47494046  0.93283511  0.51330574     0.82300
N174        N  0.47782039  0.95873283  0.50120646    -0.80200
C175        C  0.33954230  0.88074124  0.55585581     0.79800
N176        N  0.37353022  0.89548017  0.54569019    -0.78500
C177        C  0.37251804  0.91486588  0.53216526     0.82200
N178        N  0.33711305  0.91940463  0.52879369    -0.78500
C179        C  0.30305574  0.90502076  0.53893951     0.82300
N180        N  0.30453128  0.88559544  0.55230937    -0.80200
C181        C  0.67581919  0.55476088  0.22402502     0.79800
N182        N  0.64337818  0.56422277  0.22134439    -0.78500
C183        C  0.64547402  0.58978994  0.20924784     0.82200
N184        N  0.68014194  0.60500753  0.19934470    -0.78500
C185        C  0.71298957  0.59584954  0.20188626     0.82300
N186        N  0.71083615  0.57102298  0.21429204    -0.80200
C187        C  0.78307385  0.64429641  0.16727776     0.79800
N188        N  0.81869462  0.64095583  0.17120382    -0.78500
C189        C  0.82086180  0.62377632  0.18500880     0.82200
N190        N  0.78611933  0.60853105  0.19486406    -0.78500
C191        C  0.75023313  0.61189323  0.19111721     0.82300
N192        N  0.74907213  0.63035793  0.17740456    -0.80200
C193        C  0.83734043  0.36409849  0.99869871     0.79800
N194        N  0.86127095  0.40253964  0.00651409    -0.78500
C195        C  0.88855513  0.40545200  0.01826157     0.82200
N196        N  0.89232644  0.36983223  0.02197547    -0.78500
C197        C  0.86917788  0.33152394  0.01398593     0.82300
N198        N  0.84151386  0.32886409  0.00248126    -0.80200
C199        C  0.96465582  0.48937878  0.04640008     0.79800
N200        N  0.95943441  0.52400401  0.04247232    -0.78500
C201        C  0.93197510  0.52085701  0.03077700     0.82200
N202        N  0.90949885  0.48220130  0.02302255    -0.78500
C203        C  0.91380461  0.44704955  0.02685835     0.82300
N204        N  0.94122709  0.45062916  0.03864070    -0.80200
C205        C  0.11090603  0.30370122  0.83214305     0.79800
N206        N  0.07327363  0.28296316  0.84064279    -0.78500
C207        C  0.06815642  0.25275780  0.85155237     0.82200
N208        N  0.10061390  0.24278363  0.85369383    -0.78500
C209        C  0.13777855  0.26241682  0.84492226     0.82300
N210        N  0.14275544  0.29305295  0.83429987    -0.80200
C211        C  0.98581089  0.18100526  0.88081849     0.79800
N212        N  0.95111854  0.18636595  0.87712785    -0.78500
C213        C  0.95424717  0.21356921  0.86539556     0.82200
N214        N  0.99252223  0.23572802  0.85732086    -0.78500
C215        C  0.02727420  0.23014117  0.86075310     0.82300
N216        N  0.02388937  0.20310254  0.87261859    -0.80200
O217        O  0.56104462  0.18075411  0.81822580    -0.86900
O218        O  0.66227585  0.38208797  0.87061560    -0.87100
O219        O  0.62814085  0.33658638  0.81940679    -0.88800
O220        O  0.68421546  0.27407179  0.84768100    -0.87500
O221        O  0.66136094  0.23016961  0.86930624    -0.87100
O222        O  0.56228049  0.33584830  0.81898751    -0.88500
O223        O  0.68525038  0.36070283  0.84917394    -0.87000
O224        O  0.62613512  0.24675884  0.81831298    -0.86600
Zr225      Zr  0.62573378  0.28929006  0.84054139     2.84300
O226        O  0.62509028  0.28841793  0.86756861    -1.08500
O227        O  0.55332404  0.25352249  0.83109083    -1.09300
C228        C  0.59924169  0.20844196  0.81262021     1.06200
C229        C  0.69090668  0.38801090  0.86017065     1.06100
C230        C  0.60149265  0.34855308  0.81387931     1.09100
C231        C  0.68965326  0.25208184  0.85862191     1.06900
H232        H  0.60475230  0.35581889  0.84607482     0.32400
O233        O  0.58938244  0.32556271  0.84949821    -1.29500
H234        H  0.60391445  0.20137924  0.84548043     0.32100
O235        O  0.58894298  0.21633935  0.84922314    -1.31200
O236        O  0.54388094  0.32465073  0.89781044    -0.86900
O237        O  0.44252553  0.12214438  0.84668602    -0.88400
O238        O  0.53031649  0.36203357  0.84781500    -0.87000
O239        O  0.63428384  0.26077365  0.89787525    -0.87100
O240        O  0.57388353  0.14297085  0.86881236    -0.86800
O241        O  0.47417119  0.24699483  0.81781013    -0.86600
O242        O  0.42005476  0.22782333  0.86866128    -0.86900
O243        O  0.47998372  0.17215665  0.89810075    -0.86400
O244        O  0.44322296  0.27432918  0.84765658    -0.87500
O245        O  0.54443877  0.17063245  0.89799976    -0.86600
O246        O  0.57396294  0.38276754  0.86951944    -0.87000
O247        O  0.47479723  0.18187434  0.81736181    -0.86800
O248        O  0.52946105  0.12097879  0.84731245    -0.86400
O249        O  0.63184720  0.32449928  0.89854275    -0.86800
O250        O  0.47786327  0.25978862  0.89769063    -0.87100
O251        O  0.42161255  0.14204830  0.86907704    -0.88400
Zr252      Zr  0.58818653  0.32388967  0.87651608     2.83100
Zr253      Zr  0.51650966  0.18062849  0.83988263     2.83500
Zr254      Zr  0.51678241  0.28943598  0.84023443     2.84100
Zr255      Zr  0.58830230  0.21579125  0.87633494     2.83400
Zr256      Zr  0.47975249  0.21564278  0.87613551     2.84200
O257        O  0.51586540  0.17942338  0.86700761    -1.09000
O258        O  0.51581067  0.28841849  0.86732637    -1.08500
C259        C  0.50540124  0.29802650  0.90333301     1.06100
C260        C  0.41534687  0.11528339  0.85784496     1.08800
C261        C  0.55182134  0.38911306  0.85889651     1.06300
C262        C  0.64515122  0.29877583  0.90379676     1.06700
C263        C  0.55113380  0.11476713  0.85819063     1.06300
C264        C  0.46368649  0.20919493  0.81186385     1.05800
C265        C  0.41469541  0.25067395  0.85809698     1.06200
C266        C  0.50650097  0.16020127  0.90377036     1.05800
H267        H  0.45014900  0.20158170  0.84510651     0.32400
O268        O  0.47998576  0.21648880  0.84897626    -1.30100
H269        H  0.55178760  0.25144767  0.89683774     0.32500
O270        O  0.55188772  0.25152893  0.88565171    -1.31500
O271        O  0.80830689  0.84414008  0.98585296    -0.86900
O272        O  0.91212692  0.05180211  0.03497200    -0.87100
O273        O  0.78007866  0.93962679  0.01319263    -0.88800
O274        O  0.89869833  0.99849360  0.98481344    -0.87500
O275        O  0.96360494  0.99739040  0.98474882    -0.87100
O276        O  0.75918790  0.89748511  0.03523066    -0.88500
O277        O  0.86791558  0.02820303  0.01343438    -0.87000
O278        O  0.81031528  0.91040983  0.98478517    -0.86600
Zr279      Zr  0.85413859  0.95512609  0.00670563     2.84300
O280        O  0.92699319  0.99237937  0.01568375    -1.08500
O281        O  0.81751210  0.88344936  0.01648247    -1.09300
C282        C  0.79821509  0.87138968  0.97962980     1.06200
C283        C  0.88935985  0.05661011  0.02417710     1.06100
C284        C  0.75234000  0.91785706  0.02406074     1.09100
C285        C  0.93654337  0.00852983  0.97900238     1.06900
H286        H  0.83906452  0.97200883  0.03746339     0.32400
O287        O  0.85411510  0.95701279  0.03388878    -1.29500
H288        H  0.89030804  0.91771620  0.98687015     0.32100
O289        O  0.89030449  0.91847803  0.99804903    -1.31200
O290        O  0.97156158  0.99548872  0.06477664    -0.86900
O291        O  0.86814222  0.78871629  0.01514581    -0.88400
O292        O  0.81923430  0.92906229  0.06544119    -0.87000
O293        O  0.02304495  0.02812895  0.01420748    -0.87100
O294        O  0.96406808  0.90882884  0.98657695    -0.86800
O295        O  0.75907135  0.81172728  0.03732063    -0.86600
O296        O  0.88334064  0.84246536  0.06626187    -0.86900
O297        O  0.99908057  0.89827380  0.03744118    -0.86400
O298        O  0.81881903  0.84383514  0.06640263    -0.87500
O299        O  0.02041060  0.93938560  0.01514099    -0.86600
O300        O  0.88496082  0.99430368  0.06522202    -0.87000
O301        O  0.77907818  0.79004594  0.01512563    -0.86800
O302        O  0.89709819  0.84474903  0.98616118    -0.86400
O303        O  0.00021559  0.05188353  0.03512320    -0.86800
O304        O  0.96923343  0.92899157  0.06576658    -0.87100
O305        O  0.91239834  0.81183548  0.03670314    -0.88400
Zr306      Zr  0.92703052  0.99378668  0.04278687     2.83100
Zr307      Zr  0.85331068  0.84669464  0.00779340     2.83500
Zr308      Zr  0.81836200  0.88503998  0.04358748     2.84100
Zr309      Zr  0.96291173  0.95509056  0.00733465     2.83400
Zr310      Zr  0.92602222  0.88464352  0.04392722     2.84200
O311        O  0.92595298  0.88310660  0.01687186    -1.09000
O312        O  0.89079483  0.92202587  0.05256570    -1.08500
C313        C  0.98166538  0.96806345  0.07085349     1.06100
C314        C  0.89057329  0.78359339  0.02596035     1.08800
C315        C  0.84705724  0.96703678  0.07114501     1.06300
C316        C  0.02850907  0.05687252  0.02460666     1.06700
C317        C  0.93644599  0.87058266  0.98102229     1.06300
C318        C  0.75214131  0.78448711  0.02622351     1.05800
C319        C  0.84549241  0.83215798  0.07212168     1.06200
C320        C  0.02631643  0.91834547  0.02629618     1.05800
H321        H  0.83829893  0.81747237  0.03891649     0.32400
O322        O  0.85332594  0.84719214  0.03496292    -1.30100
H323        H  0.99304722  0.97180446  0.03814849     0.32500
O324        O  0.96312364  0.95678589  0.03440276    -1.31500
O325        O  0.63307447  0.32528106  0.39863187    -0.86900
O326        O  0.52960255  0.12015079  0.34845741    -0.87100
O327        O  0.54918067  0.17694871  0.39955434    -0.88800
O328        O  0.66169436  0.22799430  0.36811305    -0.87500
O329        O  0.68297814  0.27243002  0.34668023    -0.87100
O330        O  0.48335289  0.17598566  0.39988834    -0.88500
O331        O  0.57261448  0.14227604  0.37036884    -0.87000
O332        O  0.63627628  0.26146541  0.39806246    -0.86600
Zr333      Zr  0.59037564  0.21699536  0.37661761     2.84300
O334        O  0.58952241  0.21596140  0.34955290    -1.08500
O335        O  0.55458204  0.25353660  0.38582690    -1.09300
C336        C  0.64586998  0.29906326  0.40393301     1.06200
C337        C  0.55007964  0.11393700  0.35974013     1.06100
C338        C  0.51173146  0.16673175  0.40574869     1.09100
C339        C  0.68870501  0.24909043  0.35695075     1.06900
H340        H  0.50199198  0.15012920  0.37185219     0.32400
O341        O  0.51721483  0.17983262  0.36791995    -1.29500
H342        H  0.65674322  0.30464044  0.37096386     0.32100
O343        O  0.62659169  0.28955553  0.36743953    -1.31200
O344        O  0.47064130  0.17819831  0.31923485    -0.86900
O345        O  0.57465413  0.38373803  0.36878078    -0.88400
O346        O  0.42143609  0.14487602  0.36939506    -0.87000
O347        O  0.62579205  0.24424962  0.31876274    -0.87100
O348        O  0.68388041  0.36148244  0.34699175    -0.86800
O349        O  0.48115174  0.26264305  0.39818634    -0.86600
O350        O  0.44117220  0.27006528  0.34755424    -0.86900
O351        O  0.56184631  0.33427366  0.31926925    -0.86400
O352        O  0.42119123  0.22750138  0.36950537    -0.87500
O353        O  0.62681552  0.33356238  0.31882529    -0.86600
O354        O  0.44253181  0.12278596  0.34764164    -0.87000
O355        O  0.54672228  0.32799225  0.39822409    -0.86800
O356        O  0.66235792  0.38473684  0.36838278    -0.86400
O357        O  0.56159452  0.17759662  0.31927937    -0.86800
O358        O  0.47016181  0.24327139  0.31908136    -0.87100
O359        O  0.52927313  0.36046895  0.34748658    -0.88400
Zr360      Zr  0.51681067  0.17954973  0.34068994     2.83100
Zr361      Zr  0.58995113  0.32571128  0.37643913     2.83500
Zr362      Zr  0.48179312  0.21676141  0.37708468     2.84100
Zr363      Zr  0.62483536  0.28815537  0.34035040     2.83400
Zr364      Zr  0.51601251  0.28777573  0.34051292     2.84200
O365        O  0.58884022  0.32460390  0.34936143    -1.09000
O366        O  0.48122123  0.21596667  0.35001519    -1.08500
C367        C  0.45838267  0.20461908  0.31369263     1.06100
C368        C  0.55154219  0.38875466  0.35815648     1.08800
C369        C  0.41465511  0.11730392  0.35838606     1.06300
C370        C  0.59968821  0.20518032  0.31352131     1.06700
C371        C  0.68959261  0.39026760  0.35737542     1.06300
C372        C  0.50773495  0.30151509  0.40354900     1.05800
C373        C  0.41354687  0.24725030  0.35836619     1.06200
C374        C  0.60054788  0.34640068  0.31372499     1.05800
H375        H  0.50160194  0.30376562  0.37127323     0.32400
O376        O  0.51686037  0.28896377  0.36764474    -1.30100
H377        H  0.55207372  0.25150841  0.31991591     0.32500
O378        O  0.55225598  0.25168161  0.33109236    -1.31500
O379        O  0.35027605  0.69545561  0.68211469    -0.86900
O380        O  0.14571269  0.59270156  0.73245780    -0.87100
O381        O  0.24407289  0.71795275  0.70286744    -0.88800
O382        O  0.29692809  0.65616207  0.73289145    -0.87500
O383        O  0.29645366  0.59081933  0.73285895    -0.87100
O384        O  0.19894335  0.69574392  0.68154186    -0.88500
O385        O  0.21103605  0.65840259  0.73242111    -0.87000
O386        O  0.32791122  0.71584568  0.70401368    -0.86600
Zr387      Zr  0.25454979  0.65730426  0.71070813     2.84300
O388        O  0.21848175  0.58489816  0.71969716    -1.08500
O389        O  0.25426538  0.65785015  0.68369885    -1.09300
C390        C  0.35607078  0.72238094  0.69327478     1.06200
C391        C  0.17259150  0.63128524  0.73794225     1.06100
C392        C  0.22231400  0.72405553  0.69203658     1.09100
C393        C  0.30775062  0.62891272  0.73865062     1.06900
H394        H  0.16692607  0.63718549  0.70556371     0.32400
O395        O  0.18171101  0.62194878  0.70180343    -1.29500
H396        H  0.32104442  0.63681288  0.70514320     0.32100
O397        O  0.29136021  0.62205088  0.70134108    -1.31200
O398        O  0.08740762  0.47599269  0.70378553    -0.86900
O399        O  0.29047200  0.58113976  0.65129803    -0.88400
O400        O  0.10919583  0.60853659  0.68202087    -0.87000
O401        O  0.21173114  0.50576198  0.73218763    -0.87100
O402        O  0.32885692  0.56579580  0.70310315    -0.86800
O403        O  0.22663815  0.67062483  0.65390589    -0.86600
O404        O  0.13554532  0.51217572  0.65324217    -0.86900
O405        O  0.19977773  0.45632121  0.68033275    -0.86400
O406        O  0.13596098  0.57770784  0.65320160    -0.87500
O407        O  0.24178420  0.47700770  0.70242644    -0.86600
O408        O  0.08690935  0.56355217  0.70329708    -0.87000
O409        O  0.29311089  0.67281464  0.65406410    -0.86800
O410        O  0.34938362  0.60780283  0.68094439    -0.86400
O411        O  0.14606640  0.50514707  0.73258055    -0.86800
O412        O  0.11069980  0.45339106  0.68261472    -0.87100
O413        O  0.22503876  0.51554423  0.65118548    -0.88400
Zr414      Zr  0.14595978  0.54910719  0.71059482     2.83100
Zr415      Zr  0.29097002  0.62283681  0.67416704     2.83500
Zr416      Zr  0.18180500  0.62182009  0.67470654     2.84100
Zr417      Zr  0.25495609  0.54941188  0.71019920     2.83400
Zr418      Zr  0.18257788  0.51364378  0.67414247     2.84200
O419        O  0.25532020  0.55001976  0.68307153    -1.09000
O420        O  0.14563481  0.54901963  0.68348568    -1.08500
C421        C  0.08274247  0.44760323  0.69341466     1.06100
C422        C  0.26283812  0.54345285  0.64523301     1.08800
C423        C  0.08095086  0.58598296  0.69265225     1.06300
C424        C  0.17340971  0.49382718  0.73795254     1.06700
C425        C  0.35585295  0.58689647  0.69197663     1.06300
C426        C  0.26629278  0.68505654  0.64894352     1.05800
C427        C  0.12345750  0.53879940  0.64788361     1.06200
C428        C  0.22176225  0.45026360  0.69109985     1.05800
H429        H  0.21786372  0.58709364  0.65388477     0.32400
O430        O  0.21821951  0.58641959  0.66505433    -1.30100
H431        H  0.16789884  0.48304764  0.70498731     0.32500
O432        O  0.18238700  0.51306711  0.70126506    -1.31500
O433        O  0.22884745  0.51263139  0.15207468    -0.86900
O434        O  0.33517798  0.71831287  0.20193242    -0.87100
O435        O  0.29597479  0.66822870  0.15205140    -0.88800
O436        O  0.35635368  0.61223258  0.18192759    -0.87500
O437        O  0.33455931  0.56943048  0.20381146    -0.87100
O438        O  0.23061994  0.66807893  0.15199267    -0.88500
O439        O  0.35468094  0.69567702  0.17991353    -0.87000
O440        O  0.29427144  0.57829858  0.15135203    -0.86600
Zr441      Zr  0.29536583  0.62254156  0.17345031     2.84300
O442        O  0.29660733  0.62360347  0.20054496    -1.08500
O443        O  0.22243304  0.58685267  0.16461080    -1.09300
C444        C  0.26669612  0.53956744  0.14605757     1.06200
C445        C  0.36206158  0.72367474  0.19080617     1.06100
C446        C  0.26942770  0.68044542  0.14658939     1.09100
C447        C  0.36313538  0.59247582  0.19334945     1.06900
H448        H  0.27497757  0.68982697  0.17877022     0.32400
O449        O  0.25997998  0.65984617  0.18252108    -1.29500
H450        H  0.27436567  0.53524702  0.17897627     0.32100
O451        O  0.25926343  0.55024844  0.18272188    -1.31200
O452        O  0.21730306  0.66300610  0.23095170    -0.86900
O453        O  0.11360971  0.45559755  0.18184545    -0.88400
O454        O  0.19990244  0.69632639  0.18135664    -0.87000
O455        O  0.30338246  0.59545929  0.23180762    -0.87100
O456        O  0.24688462  0.47872456  0.20232789    -0.86800
O457        O  0.14152191  0.57981415  0.15195456    -0.86600
O458        O  0.09385757  0.56862428  0.20412875    -0.86900
O459        O  0.15205528  0.50858812  0.23204063    -0.86400
O460        O  0.11549533  0.61191690  0.18236174    -0.87500
O461        O  0.21639961  0.50663266  0.23177921    -0.86600
O462        O  0.24555824  0.71880439  0.20256956    -0.87000
O463        O  0.14336360  0.51530068  0.15167668    -0.86800
O464        O  0.19987354  0.45576005  0.18142935    -0.86400
O465        O  0.30319377  0.66057071  0.23226295    -0.86800
O466        O  0.15194057  0.59749590  0.23155879    -0.87100
O467        O  0.09374352  0.47789908  0.20387892    -0.88400
Zr468      Zr  0.26138516  0.66075451  0.20961353     2.83100
Zr469      Zr  0.18606276  0.51466824  0.17397470     2.83500
Zr470      Zr  0.18676401  0.62359382  0.17382102     2.84100
Zr471      Zr  0.25986041  0.55135378  0.20987840     2.83400
Zr472      Zr  0.15189726  0.55224302  0.21016603     2.84200
O473        O  0.18705950  0.51513545  0.20106115    -1.09000
O474        O  0.18850541  0.62440377  0.20085576    -1.08500
C475        C  0.17872828  0.63672935  0.23656929     1.06100
C476        C  0.08704450  0.44966112  0.19312308     1.08800
C477        C  0.22195378  0.72410306  0.19221708     1.06300
C478        C  0.31342662  0.63281804  0.23799384     1.06700
C479        C  0.22342325  0.45048985  0.19178117     1.06300
C480        C  0.13159517  0.54203631  0.14609827     1.05800
C481        C  0.08864509  0.59183040  0.19364502     1.06200
C482        C  0.17826120  0.49597019  0.23746746     1.05800
H483        H  0.11945871  0.53601881  0.17947889     0.32400
O484        O  0.14969550  0.55100157  0.18302179    -1.30100
H485        H  0.22458607  0.58860791  0.23028703     0.32500
O486        O  0.22460688  0.58843684  0.21909513    -1.31500
O487        O  0.88359214  0.98853963  0.56592438    -0.86900
O488        O  0.77600627  0.78613212  0.51501411    -0.87100
O489        O  0.75694859  0.89661299  0.53588786    -0.88800
O490        O  0.81490043  0.83770879  0.56492638    -0.87500
O491        O  0.87885711  0.83483414  0.56487175    -0.87100
O492        O  0.77984396  0.94144342  0.51448879    -0.88500
O493        O  0.75572624  0.80849903  0.53688922    -0.87000
O494        O  0.81605528  0.92542290  0.56540894    -0.86600
Zr495      Zr  0.81550421  0.88196109  0.54328667     2.84300
O496        O  0.84978107  0.84383973  0.53415278    -1.08500
O497        O  0.85287693  0.95468301  0.53444452    -1.09300
C498        C  0.84484111  0.96243539  0.57151601     1.06200
C499        C  0.74897530  0.78023130  0.52614472     1.06100
C500        C  0.75164003  0.91923951  0.52517708     1.09100
C501        C  0.84113878  0.82557437  0.57061644     1.06900
H502        H  0.78449047  0.86718684  0.51270133     0.32400
O503        O  0.81461296  0.88179505  0.51626500    -1.29500
H504        H  0.88873920  0.91598913  0.56346816     0.32100
O505        O  0.88826453  0.91605141  0.55228803    -1.31200
O506        O  0.89057109  0.84486355  0.48428703    -0.86900
O507        O  0.99779516  0.04802280  0.53548241    -0.88400
O508        O  0.80593510  0.90953428  0.48586181    -0.87000
O509        O  0.90462602  0.80417506  0.53564546    -0.87100
O510        O  0.96907203  0.92162826  0.56440317    -0.86800
O511        O  0.86891484  0.02838873  0.51491767    -0.86600
O512        O  0.96205871  0.99791246  0.48553295    -0.86900
O513        O  0.01621646  0.93237887  0.51300409    -0.86400
O514        O  0.89640586  0.99755888  0.48526312    -0.87500
O515        O  0.99463466  0.88978516  0.53486233    -0.86600
O516        O  0.80374004  0.84304454  0.48584024    -0.87000
O517        O  0.91128194  0.04767283  0.53696065    -0.86800
O518        O  0.97276507  0.98882623  0.56421883    -0.86400
O519        O  0.86059652  0.78341816  0.51401229    -0.86800
O520        O  0.95652182  0.90971649  0.48394774    -0.87100
O521        O  0.01921241  0.02491866  0.51402320    -0.88400
Zr522      Zr  0.84925240  0.84415660  0.50712126     2.83100
Zr523      Zr  0.92571340  0.98855648  0.54335974     2.83500
Zr524      Zr  0.85245308  0.95446901  0.50730328     2.84100
Zr525      Zr  0.92278170  0.87842764  0.54282989     2.83400
Zr526      Zr  0.95981956  0.95152800  0.50693562     2.84200
O527        O  0.96093123  0.95137511  0.53404850    -1.09000
O528        O  0.88695495  0.91676569  0.49803722    -1.08500
C529        C  0.92813399  0.87214724  0.47811663     1.06100
C530        C  0.02487480  0.05380745  0.52441640     1.08800
C531        C  0.79266805  0.87042692  0.48051119     1.06300
C532        C  0.88164107  0.77653405  0.52490319     1.06700
C533        C  0.98307240  0.96088707  0.56965945     1.06300
C534        C  0.89020373  0.05496075  0.52617997     1.05800
C535        C  0.93514423  0.00934218  0.47989338     1.06200
C536        C  0.02202200  0.91001857  0.52369426     1.05800
H537        H  0.94035917  0.01899668  0.51258600     0.32400
O538        O  0.92509032  0.98898915  0.51626811    -1.30100
H539        H  0.93612255  0.86277975  0.51174047     0.32500
O540        O  0.92225555  0.87854194  0.51572060    -1.31500
C541        C  0.94287171  0.09017523  0.91116022    -0.11800
C542        C  0.97651288  0.10860743  0.92225036     0.14700
C543        C  0.01463755  0.14946556  0.91915750     0.01600
C544        C  0.01744439  0.17160885  0.90530959    -0.16200
C545        C  0.98310350  0.15382763  0.89438000    -0.11000
C546        C  0.94585434  0.11202308  0.89727490     0.08300
C547        C  0.96934806  0.08518741  0.93717498     0.09400
S548        S  0.05993173  0.17591377  0.93261223    -0.25300
H549        H  0.04614985  0.20362898  0.90326262     0.19600
S550        S  0.90140601  0.08415947  0.88365723    -0.31000
H551        H  0.91379437  0.05857543  0.91342153     0.09900
C552        C  0.95231142  0.09611920  0.95009561     0.03100
C553        C  0.94254588  0.07090819  0.96364845    -0.13300
C554        C  0.94941005  0.03483698  0.96458026    -0.09000
C555        C  0.96673805  0.02409287  0.95157731     0.06600
C556        C  0.97669824  0.04951725  0.93808567    -0.14100
S557        S  0.94152288  0.14123331  0.94912820    -0.31000
H558        H  0.92910860  0.07905920  0.97355160     0.10800
S559        S  0.97451449  0.97705428  0.95106264    -0.28100
H560        H  0.98918971  0.04075120  0.92805552     0.08100
H561        H  0.92809968  0.10062496  0.87042225     0.26500
H562        H  0.93075053  0.14061521  0.96483407     0.21300
H563        H  0.93670227  0.94919809  0.95971568     0.26600
H564        H  0.05320091  0.13753000  0.94010584     0.15500
C565        C  0.83890488  0.19304731  0.85744181    -0.11800
C566        C  0.84538253  0.23565677  0.85883179     0.14700
C567        C  0.88830801  0.27125547  0.86149195     0.01600
C568        C  0.92348410  0.26332710  0.86311537    -0.16200
C569        C  0.91687979  0.22056028  0.86201565    -0.11000
C570        C  0.87417282  0.18525332  0.85875512     0.08300
C571        C  0.80640155  0.24149275  0.85840419     0.09400
S572        S  0.90005441  0.32728756  0.86326848    -0.25300
H573        H  0.95611373  0.29063171  0.86559417     0.19600
S574        S  0.86265928  0.12978250  0.85568338    -0.31000
H575        H  0.80605438  0.16563920  0.85533115     0.09900
C576        C  0.78308761  0.23685024  0.84457156     0.03100
C577        C  0.74604669  0.24218783  0.84484015    -0.13300
C578        C  0.73105737  0.25070945  0.85875314    -0.09000
C579        C  0.75450058  0.25536033  0.87260795     0.06600
C580        C  0.79207335  0.25099390  0.87224334    -0.14100
S581        S  0.80047337  0.22414409  0.82659055    -0.31000
H582        H  0.72787783  0.23843085  0.83426480     0.10800
S583        S  0.73772085  0.26826475  0.89071347    -0.28100
H584        H  0.81031547  0.25461415  0.88278580     0.08100
H585        H  0.90392835  0.14175755  0.84920692     0.26500
H586        H  0.76487948  0.21922016  0.81755531     0.21300
H587        H  0.76881904  0.26543009  0.90019360     0.26600
H588        H  0.86654108  0.32295218  0.85322405     0.15500
C589        C  0.16250009  0.41002745  0.76824296    -0.11800
C590        C  0.13870362  0.41675164  0.77986474     0.14700
C591        C  0.12529432  0.44816358  0.77752568     0.01600
C592        C  0.13574073  0.47165565  0.76354701    -0.16200
C593        C  0.16013763  0.46535940  0.75193039    -0.11000
C594        C  0.17304359  0.43348096  0.75433699     0.08300
C595        C  0.12913516  0.39027904  0.79417797     0.09400
S596        S  0.09596813  0.46104462  0.79186072    -0.25300
H597        H  0.12593398  0.49615637  0.76194671     0.19600
S598        S  0.20186331  0.41987243  0.74007106    -0.31000
H599        H  0.17256146  0.38575223  0.76997653     0.09900
C600        C  0.08786829  0.35230814  0.79670595     0.03100
C601        C  0.08191228  0.32574528  0.80969043    -0.13300
C602        C  0.11666191  0.33612759  0.82006885    -0.09000
C603        C  0.15740225  0.37532770  0.81779932     0.06600
C604        C  0.16329735  0.40156747  0.80482809    -0.14100
S605        S  0.04370540  0.33644187  0.78292130    -0.31000
H606        H  0.05078275  0.29568451  0.81136152     0.10800
S607        S  0.20296903  0.39407480  0.83111132    -0.28100
H608        H  0.19494192  0.43093078  0.80293223     0.08100
H609        H  0.17913056  0.42364709  0.72728843     0.26500
H610        H  0.01193574  0.29924525  0.79101242     0.21300
H611        H  0.17661633  0.37766688  0.84443355     0.26600
H612        H  0.10013114  0.43823485  0.80447433     0.15500
C613        C  0.32681552  0.28306974  0.85787206    -0.11800
C614        C  0.28873972  0.24204058  0.85558813     0.14700
C615        C  0.29220756  0.20374876  0.85473790     0.01600
C616        C  0.33375865  0.20752958  0.85585065    -0.16200
C617        C  0.37190615  0.24870446  0.85780700    -0.11000
C618        C  0.36829380  0.28679542  0.85909408     0.08300
C619        C  0.24679343  0.24134172  0.85295950     0.09400
S620        S  0.24540109  0.14953858  0.85170338    -0.25300
H621        H  0.33649255  0.17820934  0.85487075     0.19600
S622        S  0.41520823  0.34083725  0.86236841    -0.31000
H623        H  0.32417360  0.31247615  0.85855903     0.09900
C624        C  0.22006915  0.23989039  0.86534261     0.03100
C625        C  0.18365701  0.24524519  0.86237611    -0.13300
C626        C  0.17331058  0.25172919  0.84722494    -0.09000
C627        C  0.19879795  0.25026153  0.83476455     0.06600
C628        C  0.23553005  0.24582229  0.83780193    -0.14100
S629        S  0.23256668  0.23134940  0.88487855    -0.31000
H630        H  0.16396743  0.24569269  0.87193197     0.10800
S631        S  0.18575665  0.25264185  0.81472236    -0.28100
H632        H  0.25577267  0.24618275  0.82827035     0.08100
H633        H  0.43931056  0.32657502  0.87125089     0.26500
H634        H  0.19928018  0.23593530  0.89217729     0.21300
H635        H  0.13983562  0.22844493  0.81685652     0.26600
H636        H  0.21383996  0.15766244  0.85849595     0.15500
C637        C  0.05694796  0.53639302  0.07647546    -0.11800
C638        C  0.04219779  0.50118081  0.08688771     0.14700
C639        C  0.00437072  0.46072813  0.08314207     0.01600
C640        C  0.98046085  0.45729239  0.06966808    -0.16200
C641        C  0.99376532  0.49328988  0.05961473    -0.11000
C642        C  0.03365191  0.53273757  0.06278609     0.08300
C643        C  0.06443317  0.50911501  0.10217063     0.09400
S644        S  0.98431016  0.41277094  0.09532892    -0.25300
H645        H  0.95052901  0.42655862  0.06725573     0.19600
S646        S  0.05617564  0.57820179  0.04929595    -0.31000
H647        H  0.08632532  0.56717528  0.07929955     0.09900
C648        C  0.10541829  0.51130004  0.10395625     0.03100
C649        C  0.12595764  0.52119428  0.11853751    -0.13300
C650        C  0.10641158  0.52895046  0.13142136    -0.09000
C651        C  0.06458057  0.52527055  0.12969557     0.06600
C652        C  0.04436658  0.51579882  0.11509885    -0.14100
S653        S  0.13133608  0.50099331  0.08773768    -0.31000
H654        H  0.15788518  0.52380138  0.11987502     0.10800
S655        S  0.03432789  0.53090784  0.14551672    -0.28100
H656        H  0.01260169  0.51361289  0.11377876     0.08100
H657        H  0.09726262  0.60327904  0.05661818     0.26500
H658        H  0.16691365  0.50310325  0.09602799     0.21300
H659        H  0.05665869  0.52380270  0.15763797     0.26600
H660        H  0.02534408  0.42350800  0.10174895     0.15500
C661        C  0.88390956  0.59270928  0.01783137    -0.11800
C662        C  0.91587321  0.63382568  0.02351850     0.14700
C663        C  0.95461483  0.63840392  0.03019575     0.01600
C664        C  0.95921662  0.60134894  0.03201289    -0.16200
C665        C  0.92651366  0.55938319  0.02691599    -0.11000
C666        C  0.88901727  0.55575823  0.01916039     0.08300
C667        C  0.90628040  0.67033230  0.02378286     0.09400
S668        S  0.99902712  0.69064216  0.03687514    -0.25300
H669        H  0.98874290  0.60553178  0.03757794     0.19600
S670        S  0.84492017  0.50499607  0.01151356    -0.31000
H671        H  0.85414171  0.58914886  0.01264332     0.09900
C672        C  0.90322451  0.69054466  0.01011527     0.03100
C673        C  0.89657412  0.72660134  0.01118085    -0.13300
C674        C  0.89256535  0.74265087  0.02562666    -0.09000
C675        C  0.89319400  0.72070805  0.03925861     0.06600
C676        C  0.90052851  0.68521285  0.03817821    -0.14100
S677        S  0.91018651  0.67216597  0.99136639    -0.31000
H678        H  0.89617347  0.74342987  0.00072728     0.10800
S679        S  0.88375515  0.73544908  0.05830050    -0.28100
H680        H  0.90171183  0.66889079  0.04866745     0.08100
H681        H  0.87242965  0.50058326  0.00069594     0.26500
H682        H  0.89935422  0.69904462  0.98249992     0.21300
H683        H  0.85348670  0.74821012  0.05344634     0.26600
H684        H  0.99230586  0.71651644  0.02598969     0.15500
C685        C  0.91527950  0.25609506  0.02326672    -0.11800
C686        C  0.87714938  0.21472586  0.02196214     0.14700
C687        C  0.83623494  0.21215915  0.01934442     0.01600
C688        C  0.83477888  0.25081182  0.01702611    -0.16200
C689        C  0.87315005  0.29239853  0.01764656    -0.11000
C690        C  0.91385197  0.29489827  0.02107039     0.08300
C691        C  0.88147786  0.17496109  0.02237717     0.09400
S692        S  0.78490694  0.16059829  0.01850892    -0.25300
H693        H  0.80325651  0.24835777  0.01470286     0.19600
S694        S  0.96553692  0.34597856  0.02171429    -0.31000
H695        H  0.94670361  0.25808752  0.02534623     0.09900
C696        C  0.87935281  0.15204127  0.00872368     0.03100
C697        C  0.88296286  0.11414142  0.00964303    -0.13300
C698        C  0.88723371  0.09771061  0.02399652    -0.09000
C699        C  0.88817966  0.12035288  0.03769919     0.06600
C700        C  0.88666663  0.15933942  0.03667989    -0.14100
S701        S  0.87209331  0.17104810  0.99010943    -0.31000
H702        H  0.88230639  0.09713140  0.99910793     0.10800
S703        S  0.88737587  0.09951861  0.05685130    -0.28100
H704        H  0.88743236  0.17657401  0.04718072     0.08100
H705        H  0.95668395  0.36402154  0.00859544     0.26500
H706        H  0.86719181  0.13499057  0.98142061     0.21300
H707        H  0.85568094  0.05579774  0.05316027     0.26600
H708        H  0.79757155  0.13726620  0.02848253     0.15500
C709        C  0.71750619  0.36533700  0.93831842    -0.11800
C710        C  0.72753288  0.33496374  0.94498763     0.14700
C711        C  0.71101832  0.29338774  0.93787315     0.01600
C712        C  0.68418613  0.28273362  0.92475255    -0.16200
C713        C  0.67451265  0.31318285  0.91778878    -0.11000
C714        C  0.69284880  0.35575190  0.92460380     0.08300
C715        C  0.75467540  0.34678096  0.95940645     0.09400
S716        S  0.72382507  0.25256512  0.94471338    -0.25300
H717        H  0.67143174  0.25023429  0.91981800     0.19600
S718        S  0.68840724  0.40044518  0.91626474    -0.31000
H719        H  0.72998987  0.39735511  0.94364810     0.09900
C720        C  0.79843448  0.38254078  0.96000896     0.03100
C721        C  0.82402489  0.38914499  0.97337986    -0.13300
C722        C  0.80717475  0.36028061  0.98602802    -0.09000
C723        C  0.76283336  0.32590407  0.98567733     0.06600
C724        C  0.73709058  0.31987880  0.97251858    -0.14100
S725        S  0.82307467  0.41774801  0.94339347    -0.31000
H726        H  0.85804994  0.41541687  0.97367433     0.10800
S727        S  0.73729372  0.28825090  0.00158754    -0.28100
H728        H  0.70328352  0.29303554  0.97230972     0.08100
H729        H  0.70330576  0.39611359  0.90160724     0.26500
H730        H  0.86393720  0.44653965  0.95029735     0.21300
H731        H  0.76173409  0.31869859  0.01328079     0.26600
H732        H  0.76738786  0.28297290  0.94904793     0.15500
C733        C  0.99410772  0.60644216  0.20808178    -0.11800
C734        C  0.97246620  0.60367767  0.19409827     0.14700
C735        C  0.98885905  0.59634740  0.18019616     0.01600
C736        C  0.02701572  0.59337677  0.18046284    -0.16200
C737        C  0.04865898  0.59574578  0.19437750    -0.11000
C738        C  0.03201984  0.60263228  0.20837872     0.08300
C739        C  0.93452734  0.61116385  0.19396091     0.09400
S740        S  0.96224473  0.58997108  0.16173328    -0.25300
H741        H  0.03963679  0.58856940  0.16968328     0.19600
S742        S  0.05914216  0.60988478  0.22676886    -0.31000
H743        H  0.98205260  0.61278201  0.21875408     0.09900
C744        C  0.89307486  0.57989129  0.19991231     0.03100
C745        C  0.85662055  0.58555408  0.19742729    -0.13300
C746        C  0.86097857  0.62207084  0.18918390    -0.09000
C747        C  0.90347374  0.65503899  0.18434661     0.06600
C748        C  0.93944273  0.64889123  0.18658950    -0.14100
S749        S  0.88609537  0.53146198  0.20977688    -0.31000
H750        H  0.82432934  0.56055939  0.20134292     0.10800
S751        S  0.91449042  0.70621445  0.17557714    -0.28100
H752        H  0.97157600  0.67347810  0.18234841     0.08100
H753        H  0.10188223  0.63530587  0.22073687     0.26500
H754        H  0.84084154  0.51274561  0.21284696     0.21300
H755        H  0.88375191  0.71080120  0.18465707     0.26600
H756        H  0.91905110  0.56877983  0.16759816     0.15500
C757        C  0.81148114  0.69027908  0.12661502    -0.11800
C758        C  0.80037899  0.72343478  0.12723319     0.14700
C759        C  0.77827908  0.72656886  0.14041908     0.01600
C760        C  0.76996307  0.69803545  0.15294498    -0.16200
C761        C  0.78375809  0.66676688  0.15270343    -0.11000
C762        C  0.80304633  0.66174669  0.13906708     0.08300
C763        C  0.81193449  0.75346235  0.11377586     0.09400
S764        S  0.76143821  0.76718407  0.14229493    -0.25300
H765        H  0.75488473  0.70202149  0.16329283     0.19600
S766        S  0.81683627  0.61904999  0.13668107    -0.31000
H767        H  0.82700794  0.68670636  0.11631093     0.09900
C768        C  0.85620592  0.78311683  0.10993766     0.03100
C769        C  0.86594446  0.80856463  0.09644195    -0.13300
C770        C  0.83239058  0.80507887  0.08653554    -0.09000
C771        C  0.78787344  0.77557184  0.09065579     0.06600
C772        C  0.77831026  0.75044284  0.10419648    -0.14100
S773        S  0.90036156  0.78912752  0.12238939    -0.31000
H774        H  0.90002195  0.83150076  0.09363658     0.10800
S775        S  0.74155209  0.76636067  0.07890818    -0.28100
H776        H  0.74429443  0.72727739  0.10707142     0.08100
H777        H  0.78203277  0.58795362  0.14588743     0.26500
H778        H  0.93535870  0.81818555  0.11281985     0.21300
H779        H  0.76089366  0.76387578  0.06499906     0.26600
H780        H  0.79444325  0.79936923  0.13284751     0.15500
C781        C  0.67142994  0.43725394  0.28496814    -0.11800
C782        C  0.63922050  0.43386700  0.27456534     0.14700
C783        C  0.59496601  0.40071734  0.27673749     0.01600
C784        C  0.58362308  0.37346059  0.28969020    -0.16200
C785        C  0.61542372  0.37701680  0.30035372    -0.11000
C786        C  0.66006696  0.40965804  0.29790854     0.08300
C787        C  0.65205925  0.46741098  0.26230409     0.09400
S788        S  0.55126480  0.39167116  0.26353921    -0.25300
H789        H  0.54950654  0.34910938  0.29142677     0.19600
S790        S  0.70352058  0.42067941  0.31144766    -0.31000
H791        H  0.70538415  0.46297092  0.28338303     0.09900
C792        C  0.63908446  0.49934961  0.26296093     0.03100
C793        C  0.64885510  0.52837089  0.25054470    -0.13300
C794        C  0.67180330  0.52664407  0.23746963    -0.09000
C795        C  0.68688282  0.49602217  0.23730908     0.06600
C796        C  0.67657468  0.46662486  0.24965807    -0.14100
S797        S  0.61051920  0.50357818  0.27968798    -0.31000
H798        H  0.63839114  0.55252770  0.25103191     0.10800
S799        S  0.71677693  0.49070929  0.22135874    -0.28100
H800        H  0.68690027  0.44227632  0.24926349     0.08100
H801        H  0.67805687  0.41677663  0.32454154     0.26500
H802        H  0.59772221  0.53195009  0.27296320     0.21300
H803        H  0.75407428  0.53224497  0.22411743     0.26600
H804        H  0.57777333  0.40860502  0.25030135     0.15500
C805        C  0.48680042  0.63495946  0.19275233    -0.11800
C806        C  0.48773658  0.59716335  0.19736874     0.14700
C807        C  0.44785840  0.55832696  0.20074246     0.01600
C808        C  0.40813838  0.55824798  0.19957345    -0.16200
C809        C  0.40676849  0.59567070  0.19465981    -0.11000
C810        C  0.44690913  0.63482857  0.19153194     0.08300
C811        C  0.53074187  0.60014979  0.20006106     0.09400
S812        S  0.44534724  0.50785065  0.20671670    -0.25300
H813        H  0.37789773  0.52844041  0.20244571     0.19600
S814        S  0.44995292  0.68650309  0.18723773    -0.31000
H815        H  0.51750854  0.66519624  0.19063557     0.09900
C816        C  0.55739018  0.60082008  0.18777413     0.03100
C817        C  0.59624507  0.60008300  0.19106189    -0.13300
C818        C  0.60863052  0.59820676  0.20642020    -0.09000
C819        C  0.58283634  0.60019057  0.21867515     0.06600
C820        C  0.54414133  0.60062972  0.21534294    -0.14100
S821        S  0.54023877  0.59945046  0.16796788    -0.31000
H822        H  0.61579842  0.59871021  0.18163171     0.10800
S823        S  0.59740418  0.60300417  0.23883297    -0.28100
H824        H  0.52396852  0.60099051  0.22477157     0.08100
H825        H  0.41609119  0.67978053  0.19750131     0.26500
H826        H  0.57680784  0.60019868  0.16099611     0.21300
H827        H  0.64301364  0.62946949  0.23634861     0.26600
H828        H  0.48348432  0.51497190  0.19890799     0.15500
C829        C  0.34868222  0.80589564  0.58597725    -0.11800
C830        C  0.32240450  0.80780506  0.59782370     0.14700
C831        C  0.30641463  0.83734259  0.59648832     0.01600
C832        C  0.31492232  0.86236152  0.58303925    -0.16200
C833        C  0.33905830  0.85886357  0.57067734    -0.11000
C834        C  0.35736803  0.83114058  0.57247054     0.08300
C835        C  0.30851304  0.77573742  0.61068297     0.09400
S836        S  0.27243204  0.84259011  0.61104410    -0.25300
H837        H  0.30129014  0.88392452  0.58206962     0.19600
S838        S  0.38812739  0.82294823  0.55748573    -0.31000
H839        H  0.36094397  0.78315875  0.58698259     0.09900
C840        C  0.26547639  0.73922323  0.61122276     0.03100
C841        C  0.25231899  0.71096411  0.62403919    -0.13300
C842        C  0.28171913  0.71760935  0.63617066    -0.09000
C843        C  0.32508491  0.75425357  0.63551254     0.06600
C844        C  0.33804782  0.78262063  0.62273266    -0.14100
S845        S  0.22784862  0.72772543  0.59527352    -0.31000
H846        H  0.21930460  0.68279078  0.62441976     0.10800
S847        S  0.36481172  0.76784181  0.65083401    -0.28100
H848        H  0.37104221  0.81090362  0.62234806     0.08100
H849        H  0.42193784  0.86729787  0.55753604     0.26500
H850        H  0.19183310  0.69030002  0.60177007     0.21300
H851        H  0.33395644  0.75609660  0.66287542     0.26600
H852        H  0.28846617  0.82977598  0.62373542     0.15500
C853        C  0.13916085  0.93237407  0.51593116    -0.11800
C854        C  0.13887215  0.89785386  0.52413242     0.14700
C855        C  0.09949851  0.86596157  0.53125004     0.01600
C856        C  0.06207457  0.87044350  0.53064778    -0.16200
C857        C  0.06264917  0.90634347  0.52312554    -0.11000
C858        C  0.10199854  0.93736075  0.51548937     0.08300
C859        C  0.18157877  0.90039655  0.52738032     0.09400
S860        S  0.09539706  0.81960769  0.54174062    -0.25300
H861        H  0.03231693  0.84570617  0.53629625     0.19600
S862        S  0.10898274  0.98641799  0.50627700    -0.31000
H863        H  0.16958414  0.95737471  0.51070270     0.09900
C864        C  0.20639084  0.89439062  0.51582397     0.03100
C865        C  0.24677600  0.89761645  0.51976549    -0.13300
C866        C  0.26291627  0.90693446  0.53502034    -0.09000
C867        C  0.23870455  0.91473643  0.54641768     0.06600
C868        C  0.19834015  0.91116646  0.54245728    -0.14100
S869        S  0.18590583  0.88089582  0.49624722    -0.31000
H870        H  0.26513919  0.89141263  0.51104861     0.10800
S871        S  0.25974190  0.93167052  0.56583471    -0.28100
H872        H  0.17970854  0.91724983  0.55110369     0.08100
H873        H  0.09076759  0.99699527  0.51888513     0.26500
H874        H  0.22417127  0.88409193  0.48975745     0.21300
H875        H  0.22169000  0.92926878  0.57218290     0.26600
H876        H  0.12855385  0.81708083  0.53347827     0.15500
C877        C  0.45037960  0.06129960  0.47350376    -0.11800
C878        C  0.46707083  0.05448386  0.45967600     0.14700
C879        C  0.47546825  0.01922959  0.45872010     0.01600
C880        C  0.46790812  0.99232531  0.47162831    -0.16200
C881        C  0.45176931  0.99927987  0.48558164    -0.11000
C882        C  0.44310623  0.03448044  0.48649258     0.08300
C883        C  0.47727384  0.08565199  0.44666178     0.09400
S884        S  0.49661991  0.00703129  0.44153023    -0.25300
H885        H  0.47469311  0.96551194  0.47073880     0.19600
S886        S  0.42592432  0.04895493  0.50410258    -0.31000
H887        H  0.44434895  0.08862317  0.47432626     0.09900
C888        C  0.44448821  0.08098992  0.43617020     0.03100
C889        C  0.45626865  0.10896425  0.42325192    -0.13300
C890        C  0.50025071  0.14170798  0.42057558    -0.09000
C891        C  0.53248114  0.14811980  0.43180199     0.06600
C892        C  0.52080784  0.11958286  0.44449808    -0.14100
S893        S  0.38804356  0.03793997  0.43886273    -0.31000
H894        H  0.43132392  0.10441270  0.41496387     0.10800
S895        S  0.58854958  0.19310856  0.43102749    -0.28100
H896        H  0.54584310  0.12391912  0.45280955     0.08100
H897        H  0.45433404  0.04214687  0.51373924     0.26500
H898        H  0.37013602  0.05033324  0.42661085     0.21300
H899        H  0.57751636  0.22348639  0.42490943     0.26600
H900        H  0.48204633  0.02675454  0.43070250     0.15500
C901        C  0.56766072  0.90878473  0.50642363    -0.11800
C902        C  0.58502365  0.91394084  0.52137411     0.14700
C903        C  0.56377852  0.92155405  0.53384777     0.01600
C904        C  0.52674866  0.92572606  0.53098914    -0.16200
C905        C  0.51019746  0.92216339  0.51592059    -0.11000
C906        C  0.53022394  0.91214219  0.50358401     0.08300
C907        C  0.62728750  0.91480892  0.52324968     0.09400
S908        S  0.58360379  0.92851639  0.55348951    -0.25300
H909        H  0.51169596  0.93334795  0.54053943     0.19600
S910        S  0.50953806  0.90272393  0.48400818    -0.31000
H911        H  0.58373591  0.90252245  0.49685922     0.09900
C912        C  0.62902061  0.87604977  0.52564433     0.03100
C913        C  0.67013297  0.87853846  0.52661661    -0.13300
C914        C  0.70947314  0.91898382  0.52497957    -0.09000
C915        C  0.70745276  0.95778953  0.52265211     0.06600
C916        C  0.66643808  0.95519759  0.52175188    -0.14100
S917        S  0.57889478  0.82359165  0.52742338    -0.31000
H918        H  0.67169985  0.84879619  0.52830956     0.10800
S919        S  0.75582128  0.01166613  0.52110082    -0.28100
H920        H  0.66495572  0.98493967  0.51986123     0.08100
H921        H  0.46494005  0.88387296  0.48817609     0.26500
H922        H  0.59900537  0.79761046  0.52809404     0.21300
H923        H  0.78113342  0.00362730  0.53184005     0.26600
H924        H  0.60119342  0.90046915  0.55230609     0.15500
C925        C  0.22434095  0.82935671  0.70353673    -0.11800
C926        C  0.22632947  0.84785008  0.68899302     0.14700
C927        C  0.22785678  0.82597673  0.67548908     0.01600
C928        C  0.22703455  0.78595776  0.67687460    -0.16200
C929        C  0.22420430  0.76689016  0.69142905    -0.11000
C930        C  0.22232936  0.78873315  0.70489599     0.08300
C931        C  0.22264483  0.88777232  0.68820019     0.09400
S932        S  0.22898236  0.84614790  0.65615797    -0.25300
H933        H  0.22840582  0.76942802  0.66647047     0.19600
S934        S  0.21351558  0.76490390  0.72397123    -0.31000
H935        H  0.22210315  0.84566563  0.71385326     0.09900
C936        C  0.18188180  0.88478529  0.68513169     0.03100
C937        C  0.18039525  0.92328603  0.68253400    -0.13300
C938        C  0.21865290  0.96488268  0.68334786    -0.09000
C939        C  0.25897580  0.96782914  0.68765953     0.06600
C940        C  0.26048726  0.92914783  0.69005366    -0.14100
S941        S  0.13175984  0.83194130  0.68455985    -0.31000
H942        H  0.14924025  0.92099659  0.67969887     0.10800
S943        S  0.30988237  0.01935349  0.68936293    -0.28100
H944        H  0.29165157  0.93122422  0.69275025     0.08100
H945        H  0.18329068  0.72177890  0.71913007     0.26500
H946        H  0.10259340  0.84815061  0.68273846     0.21300
H947        H  0.30328093  0.03748768  0.67580524     0.26600
H948        H  0.24820277  0.89089799  0.65996627     0.15500
C949        C  0.07961565  0.02688010  0.59678875    -0.11800
C950        C  0.06789131  0.99810821  0.60942170     0.14700
C951        C  0.02763512  0.95778395  0.60908024     0.01600
C952        C  0.00107285  0.94620589  0.59586696    -0.16200
C953        C  0.01302288  0.97463235  0.58310546    -0.11000
C954        C  0.05285052  0.01545416  0.58359599     0.08300
C955        C  0.09951663  0.00941568  0.62232841     0.09400
S956        S  0.00835395  0.91973069  0.62511105    -0.25300
H957        H  0.97035071  0.91507744  0.59565628     0.19600
S958        S  0.07267736  0.05306159  0.56744523    -0.31000
H959        H  0.11061420  0.05771349  0.59698760     0.09900
C960        C  0.12428486  0.98821987  0.62400116     0.03100
C961        C  0.15138214  0.99723362  0.63698652    -0.13300
C962        C  0.15427895  0.02691833  0.64851616    -0.09000
C963        C  0.12973880  0.04867569  0.64660091     0.06600
C964        C  0.10330674  0.04020270  0.63342490    -0.14100
S965        S  0.12193124  0.95011161  0.60946348    -0.31000
H966        H  0.17056447  0.98100850  0.63811082     0.10800
S967        S  0.12812103  0.08524030  0.66085239    -0.28100
H968        H  0.08400558  0.05629917  0.63213160     0.08100
H969        H  0.05728877  0.02021710  0.55596903     0.26500
H970        H  0.14535779  0.93413427  0.61787762     0.21300
H971        H  0.12168146  0.05691474  0.67335090     0.26600
H972        H  0.02890488  0.95145816  0.63680188     0.15500
C973        C  0.21961946  0.26959345  0.70676816    -0.11800
C974        C  0.22225689  0.28623494  0.69184082     0.14700
C975        C  0.22997144  0.26568487  0.67913907     0.01600
C976        C  0.23617323  0.22973512  0.68178695    -0.16200
C977        C  0.23630247  0.21483568  0.69688834    -0.11000
C978        C  0.22622532  0.23412548  0.70943182     0.08300
C979        C  0.22180425  0.32788663  0.69043090     0.09400
S980        S  0.23419040  0.28465084  0.65944471    -0.25300
H981        H  0.24345492  0.21493760  0.67206946     0.19600
S982        S  0.22102399  0.21506983  0.72912201    -0.31000
H983        H  0.21330842  0.28511267  0.71650336     0.09900
C984        C  0.18416432  0.32946620  0.68578977     0.03100
C985        C  0.18549422  0.37009031  0.68570612    -0.13300
C986        C  0.22345665  0.40900597  0.69044811    -0.09000
C987        C  0.26141726  0.40708554  0.69476015     0.06600
C988        C  0.25996613  0.36665897  0.69476705    -0.14100
S989        S  0.13410577  0.27975319  0.68058068    -0.31000
H990        H  0.15640541  0.37134686  0.68237107     0.10800
S991        S  0.31314056  0.45465311  0.70005979    -0.28100
H992        H  0.28897306  0.36529988  0.69822909     0.08100
H993        H  0.20344233  0.17046245  0.72522678     0.26500
H994        H  0.11091919  0.30039116  0.67535890     0.21300
H995        H  0.30930179  0.48310398  0.68962038     0.26600
H996        H  0.24798603  0.32882569  0.66278598     0.15500
C997        C  0.37901892  0.20646398  0.74472336    -0.11800
C998        C  0.36755648  0.16989465  0.75420692     0.14700
C999        C  0.33264632  0.12823085  0.74968399     0.01600
C1000       C  0.30903930  0.12448938  0.73611130    -0.16200
C1001       C  0.31950844  0.16140300  0.72686342    -0.11000
C1002       C  0.35593058  0.20258885  0.73103953     0.08300
C1003       C  0.39121011  0.17714268  0.76909868     0.09400
S1004       S  0.31511153  0.07900752  0.76101128    -0.25300
H1005       H  0.28137344  0.09267174  0.73300593     0.19600
S1006       S  0.37546306  0.25114119  0.71921210    -0.31000
H1007       H  0.40620675  0.23836171  0.74804382     0.09900
C1008       C  0.43060039  0.17579370  0.77017766     0.03100
C1009       C  0.45300495  0.18509674  0.78440368    -0.13300
C1010       C  0.43709030  0.19637118  0.79751022    -0.09000
C1011       C  0.39718747  0.19697572  0.79641287     0.06600
C1012       C  0.37488453  0.18762777  0.78223076    -0.14100
S1013       S  0.45214259  0.16211132  0.75344188    -0.31000
H1014       H  0.48353461  0.18457226  0.78526116     0.10800
S1015       S  0.37267353  0.20859354  0.81275202    -0.28100
H1016       H  0.34454186  0.18856861  0.78140197     0.08100
H1017       H  0.36545871  0.22847549  0.70501724     0.26500
H1018       H  0.49241259  0.17128430  0.76017194     0.21300
H1019       H  0.38616982  0.18834888  0.82381743     0.26600
H1020       H  0.35512447  0.09246633  0.76870988     0.15500
C1021       C  0.54009823  0.00830829  0.37514364    -0.11800
C1022       C  0.54945768  0.99179327  0.36182167     0.14700
C1023       C  0.55595887  0.01391953  0.34758105     0.01600
C1024       C  0.55531908  0.05341611  0.34716000    -0.16200
C1025       C  0.54738339  0.07078319  0.36060642    -0.11000
C1026       C  0.53824869  0.04709967  0.37465262     0.08300
C1027       C  0.55524501  0.95324040  0.36350524     0.09400
S1028       S  0.56655992  0.99433669  0.32970457    -0.25300
H1029       H  0.56187536  0.07115489  0.33631399     0.19600
S1030       S  0.52299882  0.06393431  0.39221832    -0.31000
H1031       H  0.53444508  0.99091611  0.38602861     0.09900
C1032       C  0.59718411  0.95861008  0.36625842     0.03100
C1033       C  0.60122467  0.92143554  0.36878100    -0.13300
C1034       C  0.56419377  0.87891290  0.36850563    -0.09000
C1035       C  0.52210409  0.87368486  0.36570189     0.06600
C1036       C  0.51813304  0.91093751  0.36321380    -0.14100
S1037       S  0.64543638  0.01289281  0.36679773    -0.31000
H1038       H  0.63344364  0.92544566  0.37091941     0.10800
S1039       S  0.47212571  0.82093002  0.36588870    -0.28100
H1040       H  0.48584065  0.90705901  0.36129529     0.08100
H1041       H  0.49931410  0.08128431  0.38479550     0.26500
H1042       H  0.67646280  0.99918754  0.36902886     0.21300
H1043       H  0.48553339  0.80290991  0.37779966     0.26600
H1044       H  0.54557102  0.94957663  0.33370638     0.15500
C1045       C  0.69815936  0.85937611  0.41581827    -0.11800
C1046       C  0.68438481  0.82380278  0.42597317     0.14700
C1047       C  0.64686184  0.78298997  0.42230965     0.01600
C1048       C  0.62351558  0.77907875  0.40866906    -0.16200
C1049       C  0.63622699  0.81533675  0.39883004    -0.11000
C1050       C  0.67489685  0.85551725  0.40224837     0.08300
C1051       C  0.70971542  0.83141976  0.44038794     0.09400
S1052       S  0.62645742  0.73505086  0.43456829    -0.25300
H1053       H  0.59404262  0.74807595  0.40609411     0.19600
S1054       S  0.69706209  0.90274914  0.38961768    -0.31000
H1055       H  0.72740328  0.89048011  0.41850875     0.09900
C1056       C  0.74408546  0.82189086  0.44150267     0.03100
C1057       C  0.77018597  0.83411732  0.45490024    -0.13300
C1058       C  0.76236556  0.85556174  0.46717620    -0.09000
C1059       C  0.72623325  0.86273807  0.46631575     0.06600
C1060       C  0.70095662  0.85147946  0.45281092    -0.14100
S1061       S  0.75522944  0.79516113  0.42573597    -0.31000
H1062       H  0.79742713  0.82794234  0.45568222     0.10800
S1063       S  0.70962151  0.88442353  0.48221466    -0.28100
H1064       H  0.67401580  0.85813591  0.45198473     0.08100
H1065       H  0.68390322  0.87821742  0.37580519     0.26500
H1066       H  0.79342116  0.79786240  0.43211998     0.21300
H1067       H  0.72075049  0.86364815  0.49385677     0.26600
H1068       H  0.64545150  0.75686958  0.44851556     0.15500
C1069       C  0.54666401  0.48984526  0.37096255    -0.11800
C1070       C  0.54890160  0.50972119  0.35666352     0.14700
C1071       C  0.55248978  0.48995378  0.34291270     0.01600
C1072       C  0.55308995  0.45051743  0.34378718    -0.16200
C1073       C  0.55044215  0.43025753  0.35807188    -0.11000
C1074       C  0.54662065  0.45001265  0.37180312     0.08300
C1075       C  0.54344911  0.54875138  0.35628546     0.09400
S1076       S  0.55535656  0.51242367  0.32383269    -0.25300
H1077       H  0.55595070  0.43562516  0.33318981     0.19600
S1078       S  0.53816390  0.42445983  0.39056475    -0.31000
H1079       H  0.54295214  0.50448179  0.38147845     0.09900
C1080       C  0.50295362  0.54478352  0.35194028     0.03100
C1081       C  0.50012573  0.58279814  0.34987836    -0.13300
C1082       C  0.53688687  0.62484445  0.35218409    -0.09000
C1083       C  0.57711025  0.62862459  0.35712722     0.06600
C1084       C  0.57981677  0.59048391  0.35926773    -0.14100
S1085       S  0.45498679  0.49121430  0.34886336    -0.31000
H1086       H  0.46911542  0.57980870  0.34634983     0.10800
S1087       S  0.62674007  0.68086606  0.35981507    -0.28100
H1088       H  0.61097970  0.59340221  0.36257432     0.08100
H1089       H  0.50997000  0.38143741  0.38514861     0.26500
H1090       H  0.42678008  0.50622273  0.34369737     0.21300
H1091       H  0.62057719  0.70025901  0.34650031     0.26600
H1092       H  0.56801541  0.55565861  0.32820059     0.15500
C1093       C  0.36414791  0.62515148  0.27611476    -0.11800
C1094       C  0.39280195  0.66962004  0.27943360     0.14700
C1095       C  0.39356410  0.70212936  0.26963128     0.01600
C1096       C  0.36604008  0.68925992  0.25660264    -0.16200
C1097       C  0.33856881  0.64457695  0.25280429    -0.11000
C1098       C  0.33665714  0.61224931  0.26314949     0.08300
C1099       C  0.42247219  0.68031314  0.29287516     0.09400
S1100       S  0.42924201  0.76038111  0.27287201    -0.25300
H1101       H  0.36700151  0.71449046  0.24917003     0.19600
S1102       S  0.29855715  0.55409215  0.26106908    -0.31000
H1103       H  0.36296754  0.60019160  0.28381459     0.09900
C1104       C  0.41511461  0.69591515  0.30693760     0.03100
C1105       C  0.44318162  0.70302755  0.31955988    -0.13300
C1106       C  0.47803353  0.69437047  0.31835719    -0.09000
C1107       C  0.48604237  0.68013290  0.30405441     0.06600
C1108       C  0.45795925  0.67286642  0.29156732    -0.14100
S1109       S  0.36895709  0.70479665  0.30900127    -0.31000
H1110       H  0.43690378  0.71354937  0.33057071     0.10800
S1111       S  0.53169457  0.67102894  0.30088571    -0.28100
H1112       H  0.46377464  0.66126745  0.28068901     0.08100
H1113       H  0.26277931  0.55973246  0.25710316     0.26500
H1114       H  0.37968962  0.72321390  0.32393157     0.21300
H1115       H  0.56069082  0.70373997  0.31122204     0.26600
H1116       H  0.46187652  0.75782479  0.28147375     0.15500
C1117       C  0.84829948  0.01175064  0.11146462    -0.11800
C1118       C  0.80425914  0.00124952  0.11288583     0.14700
C1119       C  0.77490834  0.98043295  0.10043992     0.01600
C1120       C  0.78987162  0.96980621  0.08704284    -0.16200
C1121       C  0.83383195  0.97996658  0.08557868    -0.11000
C1122       C  0.86331263  0.00102843  0.09803173     0.08300
C1123       C  0.78886121  0.00947155  0.12779723     0.09400
S1124       S  0.71761913  0.96531284  0.10105645    -0.25300
H1125       H  0.76694030  0.95366778  0.07759936     0.19600
S1126       S  0.91948038  0.01244811  0.09791796    -0.31000
H1127       H  0.87071950  0.02704483  0.12109454     0.09900
C1128       C  0.76785585  0.97572907  0.13883486     0.03100
C1129       C  0.74929798  0.98313984  0.15203968    -0.13300
C1130       C  0.75186559  0.02389472  0.15464206    -0.09000
C1131       C  0.77511108  0.05839434  0.14392600     0.06600
C1132       C  0.79299096  0.05072557  0.13057368    -0.14100
S1133       S  0.76385408  0.92289197  0.13591633    -0.31000
H1134       H  0.73207173  0.95679030  0.16030596     0.10800
S1135       S  0.77995692  0.11155457  0.14605690    -0.28100
H1136       H  0.80917476  0.07668565  0.12207232     0.08100
H1137       H  0.90929014  0.97195506  0.09116282     0.26500
H1138       H  0.74157460  0.90336864  0.14977704     0.21300
H1139       H  0.80482782  0.12091611  0.15975471     0.26600
H1140       H  0.72271519  0.99918946  0.11098455     0.15500
C1141       C  0.46848096  0.82685752  0.20221557    -0.11800
C1142       C  0.48459415  0.84586666  0.18770328     0.14700
C1143       C  0.46049775  0.82450398  0.17425086     0.01600
C1144       C  0.42079906  0.78472799  0.17562963    -0.16200
C1145       C  0.40453428  0.76546506  0.19017433    -0.11000
C1146       C  0.42935993  0.78654082  0.20357791     0.08300
C1147       C  0.52947164  0.88433208  0.18689595     0.09400
S1148       S  0.47921614  0.84549430  0.15500793    -0.25300
H1149       H  0.40235829  0.76875877  0.16523070     0.19600
S1150       S  0.41538359  0.76216768  0.22255354    -0.31000
H1151       H  0.48779565  0.84245732  0.21249751     0.09900
C1152       C  0.53802864  0.92760216  0.18925827     0.03100
C1153       C  0.58162485  0.96279534  0.18839516    -0.13300
C1154       C  0.61662441  0.95529034  0.18525083    -0.09000
C1155       C  0.60771546  0.91149863  0.18349162     0.06600
C1156       C  0.56434961  0.87674157  0.18414200    -0.14100
S1157       S  0.49331911  0.93785849  0.19292824    -0.31000
H1158       H  0.58836464  0.99625953  0.18974669     0.10800
S1159       S  0.65013086  0.89737723  0.18091689    -0.28100
H1160       H  0.55769180  0.84328737  0.18268899     0.08100
H1161       H  0.39900759  0.71862547  0.21750127     0.26500
H1162       H  0.51883994  0.98407843  0.19281527     0.21300
H1163       H  0.68151449  0.93164728  0.19023759     0.26600
H1164       H  0.50385762  0.89012073  0.15915360     0.15500
C1165       C  0.71039686  0.15661978  0.26423511    -0.11800
C1166       C  0.66855034  0.15184696  0.26235243     0.14700
C1167       C  0.64727792  0.13851462  0.24784574     0.01600
C1168       C  0.66880793  0.13158711  0.23543816    -0.16200
C1169       C  0.71129737  0.13769847  0.23717322    -0.11000
C1170       C  0.73184773  0.14943741  0.25189062     0.08300
C1171       C  0.64948625  0.16422343  0.27537623     0.09400
S1172       S  0.59344159  0.13145486  0.24434752    -0.25300
H1173       H  0.65290724  0.12288145  0.22420418     0.19600
S1174       S  0.78538968  0.15595956  0.25573963    -0.31000
H1175       H  0.72675626  0.16671349  0.27536848     0.09900
C1176       C  0.62984155  0.13624597  0.28818129     0.03100
C1177       C  0.61248276  0.14970552  0.30027445    -0.13300
C1178       C  0.61515092  0.19100063  0.29993551    -0.09000
C1179       C  0.63494812  0.21889258  0.28702948     0.06600
C1180       C  0.65197197  0.20528543  0.27497816    -0.14100
S1181       S  0.62680325  0.08342234  0.28905406    -0.31000
H1182       H  0.59772131  0.12849625  0.31020374     0.10800
S1183       S  0.63849846  0.27172212  0.28501761    -0.28100
H1184       H  0.66714896  0.22681913  0.26513831     0.08100
H1185       H  0.78324286  0.12639896  0.24433659     0.26500
H1186       H  0.60870199  0.07204575  0.30400182     0.21300
H1187       H  0.59770675  0.25893539  0.29207661     0.26600
H1188       H  0.57716234  0.11674514  0.25934088     0.15500
C1189       C  0.98024462  0.34582208  0.18256349    -0.11800
C1190       C  0.96774154  0.32490868  0.19700007     0.14700
C1191       C  0.99496574  0.34474934  0.21001622     0.01600
C1192       C  0.03344563  0.38549516  0.20839568    -0.16200
C1193       C  0.04580527  0.40686649  0.19401050    -0.11000
C1194       C  0.01870954  0.38673476  0.18095287     0.08300
C1195       C  0.92375185  0.28540841  0.19859844     0.09400
S1196       S  0.98147299  0.32094165  0.22914922    -0.25300
H1197       H  0.05408005  0.40059207  0.21846327     0.19600
S1198       S  0.02965310  0.41288775  0.16223887    -0.31000
H1199       H  0.95886210  0.33108206  0.17264277     0.09900
C1200       C  0.88719786  0.28942661  0.20280951     0.03100
C1201       C  0.84663061  0.25142671  0.20560140    -0.13300
C1202       C  0.84181206  0.20939779  0.20419473    -0.09000
C1203       C  0.87858655  0.20552466  0.19988909     0.06600
C1204       C  0.91892038  0.24354306  0.19680161    -0.14100
S1205       S  0.89247631  0.34309102  0.20478166    -0.31000
H1206       H  0.81849021  0.25441513  0.20891470     0.10800
S1207       S  0.87713962  0.15350871  0.19939854    -0.28100
H1208       H  0.94728966  0.24061599  0.19374953     0.08100
H1209       H  0.04633536  0.45566437  0.16811130     0.26500
H1210       H  0.84739176  0.32818603  0.20683656     0.21300
H1211       H  0.84933365  0.13577004  0.21233202     0.26600
H1212       H  0.95739334  0.27672550  0.22451855     0.15500
C1213       C  0.89411510  0.30510162  0.35168137    -0.11800
C1214       C  0.85964309  0.26292639  0.35537913     0.14700
C1215       C  0.86904135  0.22893463  0.35834403     0.01600
C1216       C  0.91260359  0.23785710  0.35744728    -0.16200
C1217       C  0.94703609  0.27973090  0.35322365    -0.11000
C1218       C  0.93761235  0.31402261  0.35075360     0.08300
C1219       C  0.81442932  0.25583986  0.35595579     0.09400
S1220       S  0.82695777  0.17327702  0.36281800    -0.25300
H1221       H  0.91929848  0.21125055  0.35931338     0.19600
S1222       S  0.97955785  0.37011862  0.34688587    -0.31000
H1223       H  0.88705880  0.33141495  0.34964274     0.09900
C1224       C  0.79225124  0.25041243  0.37006995     0.03100
C1225       C  0.75022140  0.24593043  0.36999127    -0.13300
C1226       C  0.73017523  0.24760695  0.35611098    -0.09000
C1227       C  0.75181559  0.25081994  0.34191134     0.06600
C1228       C  0.79388391  0.25571778  0.34203363    -0.14100
S1229       S  0.81837636  0.25150209  0.38822145    -0.31000
H1230       H  0.73355904  0.24263774  0.38084550     0.10800
S1231       S  0.72698116  0.24679991  0.32324282    -0.28100
H1232       H  0.81063917  0.25897227  0.33116003     0.08100
H1233       H  0.01198429  0.36882838  0.35609950     0.26500
H1234       H  0.78283124  0.24356891  0.39784267     0.21300
H1235       H  0.68450218  0.21449863  0.32796168     0.26600
H1236       H  0.79283811  0.17380575  0.35446399     0.15500
C1237       C  0.13833698  0.38546652  0.30363073    -0.11800
C1238       C  0.11079406  0.38462909  0.29166499     0.14700
C1239       C  0.06481741  0.35626128  0.29294851     0.01600
C1240       C  0.04741484  0.33205087  0.30651077    -0.16200
C1241       C  0.07457259  0.33414448  0.31884951    -0.11000
C1242       C  0.12082563  0.36018544  0.31709322     0.08300
C1243       C  0.13050164  0.41496851  0.27833712     0.09400
S1244       S  0.02613204  0.35012183  0.27796313    -0.25300
H1245       H  0.01197037  0.31141328  0.30745025     0.19600
S1246       S  0.15892145  0.36503667  0.33197129    -0.31000
H1247       H  0.17367572  0.40678771  0.30262916     0.09900
C1248       C  0.12221354  0.44982867  0.27583536     0.03100
C1249       C  0.13857471  0.47575435  0.26250824    -0.13300
C1250       C  0.16303234  0.46765450  0.25145803    -0.09000
C1251       C  0.17136341  0.43263221  0.25402441     0.06600
C1252       C  0.15577996  0.40733039  0.26755446    -0.14100
S1253       S  0.09148433  0.46213110  0.28972222    -0.31000
H1254       H  0.13255244  0.50284056  0.26077427     0.10800
S1255       S  0.19848139  0.41626345  0.24002414    -0.28100
H1256       H  0.16164218  0.38014866  0.26935155     0.08100
H1257       H  0.14705107  0.32043975  0.33088078     0.26500
H1258       H  0.07988060  0.48558559  0.27937452     0.21300
H1259       H  0.17779943  0.42252616  0.22708958     0.26600
H1260       H  0.05553166  0.36282852  0.26545354     0.15500
C1261       C  0.00055073  0.09669147  0.41177997    -0.11800
C1262       C  0.98780115  0.11367660  0.42411018     0.14700
C1263       C  0.99191525  0.15565088  0.42270251     0.01600
C1264       C  0.01088089  0.18064147  0.40931411    -0.16200
C1265       C  0.02545771  0.16433649  0.39725921    -0.11000
C1266       C  0.01879602  0.12127477  0.39834117     0.08300
C1267       C  0.97316454  0.08782766  0.43858561     0.09400
S1268       S  0.97503827  0.17956675  0.43776977    -0.25300
H1269       H  0.01586949  0.21364199  0.40856431     0.19600
S1270       S  0.03315346  0.09593557  0.38301033    -0.31000
H1271       H  0.99690355  0.06425184  0.41275509     0.09900
C1272       C  0.93149574  0.04959264  0.43971412     0.03100
C1273       C  0.91974313  0.02501078  0.45343275    -0.13300
C1274       C  0.94918580  0.03739298  0.46593777    -0.09000
C1275       C  0.99106849  0.07571966  0.46477645     0.06600
C1276       C  0.00248415  0.10067529  0.45111912    -0.14100
S1277       S  0.89318944  0.03237782  0.42372307    -0.31000
H1278       H  0.88775860  0.99552863  0.45435678     0.10800
S1279       S  0.02935847  0.09428615  0.48081153    -0.28100
H1280       H  0.03440812  0.13021586  0.45011983     0.08100
H1281       H  0.02624501  0.11846902  0.37085368     0.26500
H1282       H  0.85970947  0.99379530  0.43065274     0.21300
H1283       H  0.06632469  0.12522387  0.47239324     0.26600
H1284       H  0.94158307  0.13958407  0.44388227     0.15500
C1285       C  0.29081676  0.20372707  0.36319822    -0.11800
C1286       C  0.28856631  0.24200617  0.36084037     0.14700
C1287       C  0.32737367  0.28171777  0.35716873     0.01600
C1288       C  0.36730041  0.28205857  0.35564836    -0.16200
C1289       C  0.36976514  0.24388898  0.35825131    -0.11000
C1290       C  0.33069129  0.20409199  0.36181612     0.08300
C1291       C  0.24553848  0.23956879  0.36296281     0.09400
S1292       S  0.32849631  0.33332283  0.35493019    -0.25300
H1293       H  0.39705244  0.31284603  0.35312562     0.19600
S1294       S  0.32909855  0.15234166  0.36422472    -0.31000
H1295       H  0.26111459  0.17320068  0.36603650     0.09900
C1296       C  0.22054895  0.24090060  0.35039875     0.03100
C1297       C  0.17985066  0.23835347  0.35320939    -0.13300
C1298       C  0.16370137  0.23445446  0.36836202    -0.09000
C1299       C  0.18969938  0.23427919  0.38090610     0.06600
C1300       C  0.22963029  0.23591505  0.37803844    -0.14100
S1301       S  0.23961151  0.24396769  0.33079792    -0.31000
H1302       H  0.15998621  0.23809604  0.34356465     0.10800
S1303       S  0.17524346  0.23440737  0.40091473    -0.28100
H1304       H  0.24915012  0.23547726  0.38770184     0.08100
H1305       H  0.35957380  0.16032996  0.35233246     0.26500
H1306       H  0.20760201  0.25111653  0.32372171     0.21300
H1307       H  0.15892168  0.26328565  0.39853911     0.26600
H1308       H  0.29491803  0.32434151  0.36565031     0.15500
C1309       C  0.54997504  0.87083285  0.03140606    -0.11800
C1310       C  0.58550123  0.91270072  0.02803936     0.14700
C1311       C  0.57807288  0.94841588  0.02619077     0.01600
C1312       C  0.53521614  0.94133834  0.02774298    -0.16200
C1313       C  0.49995102  0.89970418  0.03171663    -0.11000
C1314       C  0.50741657  0.86390511  0.03320502     0.08300
C1315       C  0.62971674  0.91748701  0.02688966     0.09400
S1316       S  0.62189744  0.00391238  0.02259726    -0.25300
H1317       H  0.52976243  0.96898680  0.02664864     0.19600
S1318       S  0.46392890  0.80841083  0.03703080    -0.31000
H1319       H  0.55556307  0.84330850  0.03269709     0.09900
C1320       C  0.65263718  0.91787998  0.04030948     0.03100
C1321       C  0.69232351  0.91789073  0.03891376    -0.13300
C1322       C  0.70985580  0.91736353  0.02434664    -0.09000
C1323       C  0.68673231  0.91714293  0.01083409     0.06600
C1324       C  0.64727382  0.91785086  0.01228450    -0.14100
S1325       S  0.63133080  0.91840590  0.05928186    -0.31000
H1326       H  0.70990553  0.91844099  0.04929802     0.10800
S1327       S  0.70392501  0.91316207  0.99151989    -0.28100
H1328       H  0.62919854  0.91691913  0.00197319     0.08100
H1329       H  0.43133803  0.81198753  0.02873007     0.26500
H1330       H  0.66917749  0.92683384  0.06766814     0.21300
H1331       H  0.71876589  0.88393515  0.99549275     0.26600
H1332       H  0.65543518  0.00006196  0.03004218     0.15500
C1333       C  0.28408830  0.76557103  0.11588223    -0.11800
C1334       C  0.31608467  0.76491564  0.10639069     0.14700
C1335       C  0.33258219  0.73682766  0.11016296     0.01600
C1336       C  0.31765131  0.71090028  0.12348230    -0.16200
C1337       C  0.28505631  0.71070940  0.13300863    -0.11000
C1338       C  0.26860825  0.73916952  0.12915689     0.08300
C1339       C  0.33387830  0.79558518  0.09313376     0.09400
S1340       S  0.37237117  0.73214482  0.09831982    -0.25300
H1341       H  0.33123596  0.69002387  0.12623019     0.19600
S1342       S  0.23025509  0.74590726  0.14107314    -0.31000
H1343       H  0.27195603  0.78772824  0.11313661     0.09900
C1344       C  0.30971994  0.78804934  0.07931813     0.03100
C1345       C  0.33035015  0.81455471  0.06635254    -0.13300
C1346       C  0.37443137  0.84866268  0.06704540    -0.09000
C1347       C  0.39708734  0.85856000  0.08132464     0.06600
C1348       C  0.37689676  0.83146887  0.09411748    -0.14100
S1349       S  0.25369603  0.74301843  0.07790342    -0.31000
H1350       H  0.31281194  0.80742233  0.05545233     0.10800
S1351       S  0.45123572  0.90578492  0.08404782    -0.28100
H1352       H  0.39497625  0.83807205  0.10489872     0.08100
H1353       H  0.25243344  0.74864711  0.15498212     0.26500
H1354       H  0.24536351  0.75280429  0.06291709     0.21300
H1355       H  0.44635391  0.93236391  0.07294142     0.26600
H1356       H  0.35777041  0.73970881  0.08409844     0.15500
C1357       C  0.42658592  0.06364180  0.97000389    -0.11800
C1358       C  0.44098695  0.04773974  0.95780916     0.14700
C1359       C  0.43888164  0.00669863  0.95935159     0.01600
C1360       C  0.42170400  0.98212505  0.97295067    -0.16200
C1361       C  0.40538109  0.99721622  0.98483649    -0.11000
C1362       C  0.40905435  0.03900107  0.98347756     0.08300
C1363       C  0.45767478  0.07489104  0.94365674     0.09400
S1364       S  0.45565063  0.98324444  0.94411055    -0.25300
H1365       H  0.41888302  0.95003878  0.97390744     0.19600
S1366       S  0.39254224  0.06293302  0.99864950    -0.31000
H1367       H  0.42886297  0.09547967  0.96896332     0.09900
C1368       C  0.42870064  0.07882115  0.93338566     0.03100
C1369       C  0.44569620  0.10690163  0.92060615    -0.13300
C1370       C  0.49132372  0.13177297  0.91781697    -0.09000
C1371       C  0.52037516  0.12834577  0.92845252     0.06600
C1372       C  0.50314796  0.09934844  0.94102266    -0.14100
S1373       S  0.36984644  0.04737251  0.93638986    -0.31000
H1374       H  0.42304389  0.10920739  0.91268420     0.10800
S1375       S  0.57950343  0.16209103  0.92747179    -0.28100
H1376       H  0.52542535  0.09706166  0.94917339     0.08100
H1377       H  0.40400892  0.04416368  0.01089805     0.26500
H1378       H  0.35813654  0.06704205  0.92452729     0.21300
H1379       H  0.57894539  0.20112678  0.92427998     0.26600
H1380       H  0.44168633  0.99969691  0.93184968     0.15500
C1381       C  0.20105362  0.91408301  0.00784310    -0.11800
C1382       C  0.19039284  0.91898857  0.02303778     0.14700
C1383       C  0.22000704  0.92523706  0.03516862     0.01600
C1384       C  0.26032065  0.92792685  0.03168777    -0.16200
C1385       C  0.27171651  0.92464854  0.01635345    -0.11000
C1386       C  0.24099043  0.91637075  0.00438967     0.08300
C1387       C  0.14918153  0.91982071  0.02541550     0.09400
S1388       S  0.20983653  0.93283757  0.05508898    -0.25300
H1389       H  0.28362542  0.93423713  0.04094906     0.19600
S1390       S  0.25028419  0.90762677  0.98451578    -0.31000
H1391       H  0.17810423  0.90879869  0.99855310     0.09900
C1392       C  0.14772162  0.95868960  0.02294770     0.03100
C1393       C  0.10711612  0.95720032  0.02330527    -0.13300
C1394       C  0.06793659  0.91766965  0.02628426    -0.09000
C1395       C  0.06959306  0.87877488  0.02900906     0.06600
C1396       C  0.11022044  0.88034886  0.02855591    -0.14100
S1397       S  0.19748242  0.01007715  0.01904245    -0.31000
H1398       H  0.10582143  0.98694830  0.02122265     0.10800
S1399       S  0.02115399  0.82572404  0.03219758    -0.28100
H1400       H  0.11139451  0.85036225  0.03020884     0.08100
H1401       H  0.27330997  0.88549471  0.98806695     0.26500
H1402       H  0.17898597  0.03714070  0.02117188     0.21300
H1403       H  0.99359997  0.83244038  0.02212525     0.26600
H1404       H  0.16373598  0.91158792  0.05423251     0.15500
C1405       C  0.33534338  0.53871926  0.57588731    -0.11800
C1406       C  0.31809838  0.50417080  0.58665547     0.14700
C1407       C  0.31571495  0.46400190  0.58257905     0.01600
C1408       C  0.33238214  0.46015579  0.56821901    -0.16200
C1409       C  0.35161039  0.49552510  0.55773403    -0.11000
C1410       C  0.35126260  0.53459665  0.56146974     0.08300
C1411       C  0.30344395  0.51175322  0.60196922     0.09400
S1412       S  0.29219417  0.41642950  0.59508354    -0.25300
H1413       H  0.33192163  0.42981146  0.56549402     0.19600
S1414       S  0.36886472  0.57971444  0.54809916    -0.31000
H1415       H  0.33619289  0.56919426  0.57872661     0.09900
C1416       C  0.33350762  0.53163665  0.61426604     0.03100
C1417       C  0.31950478  0.54182155  0.62812989    -0.13300
C1418       C  0.27565398  0.53178177  0.63021909    -0.09000
C1419       C  0.24559907  0.51175313  0.61779119     0.06600
C1420       C  0.25970667  0.50177557  0.60392781    -0.14100
S1421       S  0.38973830  0.54370353  0.61229790    -0.31000
H1422       H  0.34287093  0.55773677  0.63740709     0.10800
S1423       S  0.18967499  0.50091979  0.61843296    -0.28100
H1424       H  0.23668671  0.48724096  0.59441011     0.08100
H1425       H  0.35549503  0.55321856  0.53473654     0.26500
H1426       H  0.40457156  0.56374844  0.62684783     0.21300
H1427       H  0.20030391  0.54053131  0.62598722     0.26600
H1428       H  0.29649815  0.43818567  0.60914832     0.15500
C1429       C  0.64248041  0.67949467  0.53936573    -0.11800
C1430       C  0.62144165  0.66283205  0.52511897     0.14700
C1431       C  0.64396131  0.68271119  0.51129171     0.01600
C1432       C  0.68569302  0.72043027  0.51199319    -0.16200
C1433       C  0.70636308  0.73823541  0.52624179    -0.11000
C1434       C  0.68497771  0.71627780  0.54007818     0.08300
C1435       C  0.57520714  0.62626173  0.52507162     0.09400
S1436       S  0.62101735  0.66176621  0.49241955    -0.25300
H1437       H  0.70187260  0.73638858  0.50128193     0.19600
S1438       S  0.71053897  0.73234610  0.55889790    -0.31000
H1439       H  0.62564996  0.66362139  0.55000341     0.09900
C1440       C  0.56453025  0.58237526  0.52754425     0.03100
C1441       C  0.52010541  0.54907154  0.52803198    -0.13300
C1442       C  0.48618309  0.55892298  0.52623537    -0.09000
C1443       C  0.49709119  0.60271203  0.52308291     0.06600
C1444       C  0.54142016  0.63589421  0.52263144    -0.14100
S1445       S  0.60754639  0.56897394  0.53009103    -0.31000
H1446       H  0.51167097  0.51542875  0.53034369     0.10800
S1447       S  0.45623207  0.61832108  0.51931242    -0.28100
H1448       H  0.54971221  0.66957656  0.52043096     0.08100
H1449       H  0.75323735  0.74510521  0.55363472     0.26500
H1450       H  0.57978214  0.52305659  0.53087180     0.21300
H1451       H  0.42399283  0.57741177  0.51336785     0.26600
H1452       H  0.59607891  0.61734969  0.49683576     0.15500
C1453       C  0.20520141  0.24936579  0.52921988    -0.11800
C1454       C  0.18382938  0.22121821  0.51672785     0.14700
C1455       C  0.20249217  0.23280691  0.50182193     0.01600
C1456       C  0.24340110  0.27086188  0.49990296    -0.16200
C1457       C  0.26586043  0.29867939  0.51246400    -0.11000
C1458       C  0.24600694  0.28803400  0.52729953     0.08300
C1459       C  0.14379725  0.17846316  0.51974012     0.09400
S1460       S  0.17608668  0.19999116  0.48486037    -0.25300
H1461       H  0.25776203  0.27887073  0.48842902     0.19600
S1462       S  0.27329039  0.32130812  0.54411449    -0.31000
H1463       H  0.19043639  0.24005707  0.54059387     0.09900
C1464       C  0.14477313  0.13891116  0.51902537     0.03100
C1465       C  0.10546278  0.09874378  0.52055858    -0.13300
C1466       C  0.06535570  0.09724605  0.52331622    -0.09000
C1467       C  0.06490101  0.13720692  0.52470974     0.06600
C1468       C  0.10413067  0.17731517  0.52295144    -0.14100
S1469       S  0.19633988  0.13970226  0.51670415    -0.31000
H1470       H  0.10605222  0.06838406  0.51986242     0.10800
S1471       S  0.01531209  0.13943536  0.52795629    -0.28100
H1472       H  0.10354818  0.20783469  0.52361777     0.08100
H1473       H  0.24066950  0.29563821  0.55501938     0.26500
H1474       H  0.17831178  0.09391047  0.51543320     0.21300
H1475       H  0.98916886  0.10446635  0.51787550     0.26600
H1476       H  0.13260187  0.18247710  0.49015213     0.15500
C1477       C  0.43186658  0.32259403  0.46969572    -0.11800
C1478       C  0.44576038  0.35250505  0.45735237     0.14700
C1479       C  0.44012862  0.38956459  0.45828319     0.01600
C1480       C  0.41978159  0.39518931  0.47134560    -0.16200
C1481       C  0.40439352  0.36438906  0.48344946    -0.11000
C1482       C  0.41154050  0.32820741  0.48273291     0.08300
C1483       C  0.46297300  0.34212498  0.44330777     0.09400
S1484       S  0.45576211  0.42950711  0.44292018    -0.25300
H1485       H  0.41421295  0.42286259  0.47176255     0.19600
S1486       S  0.39561525  0.28807548  0.49802907    -0.31000
H1487       H  0.43630566  0.29423390  0.46904539     0.09900
C1488       C  0.50742340  0.35332989  0.44205410     0.03100
C1489       C  0.52158976  0.34062863  0.42882239    -0.13300
C1490       C  0.49205648  0.31687506  0.41679656    -0.09000
C1491       C  0.44781580  0.30732499  0.41791081     0.06600
C1492       C  0.43373992  0.31945291  0.43120115    -0.14100
S1493       S  0.54589950  0.38368455  0.45734913    -0.31000
H1494       H  0.55549689  0.34825925  0.42801171     0.10800
S1495       S  0.40795782  0.28119131  0.40260546    -0.28100
H1496       H  0.39968833  0.31140833  0.43208783     0.08100
H1497       H  0.40005117  0.31678289  0.51013079     0.26500
H1498       H  0.58390403  0.39008626  0.44960763     0.21300
H1499       H  0.43802076  0.30309374  0.39053725     0.26600
H1500       H  0.48779821  0.42226842  0.43604051     0.15500
C1501       C  0.67386345  0.44039503  0.78595443    -0.11800
C1502       C  0.64574511  0.42968529  0.77311781     0.14700
C1503       C  0.60230817  0.39370719  0.77413644     0.01600
C1504       C  0.58827510  0.36895949  0.78779187    -0.16200
C1505       C  0.61682399  0.37873138  0.80045389    -0.11000
C1506       C  0.65975012  0.41581204  0.79965607     0.08300
C1507       C  0.66342988  0.45578521  0.75872559     0.09400
S1508       S  0.56340264  0.37718508  0.75839759    -0.25300
H1509       H  0.55523978  0.34076098  0.78832003     0.19600
S1510       S  0.69745192  0.43438406  0.81583901    -0.31000
H1511       H  0.70701173  0.46835910  0.78531107     0.09900
C1512       C  0.65422440  0.48906957  0.75441087     0.03100
C1513       C  0.67369847  0.51409057  0.74098090    -0.13300
C1514       C  0.70203766  0.50628729  0.73171756    -0.09000
C1515       C  0.70904872  0.47109454  0.73572917     0.06600
C1516       C  0.69060026  0.44712304  0.74929781    -0.14100
S1517       S  0.61896207  0.50061514  0.76631064    -0.31000
H1518       H  0.66803890  0.54077956  0.73798036     0.10800
S1519       S  0.73947504  0.45355898  0.72374733    -0.28100
H1520       H  0.69686656  0.42085874  0.75242721     0.08100
H1521       H  0.66481927  0.42148809  0.82730677     0.26500
H1522       H  0.62164680  0.53508774  0.75720347     0.21300
H1523       H  0.72585034  0.46299539  0.70964305     0.26600
H1524       H  0.59443652  0.38971956  0.74641771     0.15500
C1525       C  0.96179784  0.55685886  0.69916551    -0.11800
C1526       C  0.96302813  0.59548619  0.69422751     0.14700
C1527       C  0.00250339  0.63008190  0.68801846     0.01600
C1528       C  0.03985529  0.62542127  0.68728980    -0.16200
C1529       C  0.03921443  0.58732345  0.69279440    -0.11000
C1530       C  0.99904184  0.55208275  0.69837549     0.08300
C1531       C  0.92253779  0.59806985  0.69642196     0.09400
S1532       S  0.00836529  0.68138633  0.68116244    -0.25300
H1533       H  0.07017701  0.65255693  0.68280074     0.19600
S1534       S  0.99371463  0.50012966  0.70405488    -0.31000
H1535       H  0.93129374  0.53029573  0.70377506     0.09900
C1536       C  0.89505482  0.59476215  0.68395716     0.03100
C1537       C  0.85380241  0.59061546  0.68701666    -0.13300
C1538       C  0.83929855  0.58904287  0.70229307    -0.09000
C1539       C  0.86812686  0.59482767  0.71468879     0.06600
C1540       C  0.90905725  0.59889949  0.71161206    -0.14100
S1541       S  0.91129842  0.59314461  0.66425152    -0.31000
H1542       H  0.83185144  0.58631389  0.67751263     0.10800
S1543       S  0.85488737  0.59723979  0.73470370    -0.28100
H1544       H  0.93035567  0.60182096  0.72119159     0.08100
H1545       H  0.94738811  0.47547749  0.70374237     0.26500
H1546       H  0.87356530  0.58947375  0.65709877     0.21300
H1547       H  0.83071208  0.61854632  0.73178153     0.26600
H1548       H  0.97104538  0.67829073  0.68831094     0.15500
C1549       C  0.45158369  0.57158197  0.68095089    -0.11800
C1550       C  0.48145853  0.59514162  0.69282207     0.14700
C1551       C  0.46943759  0.61513680  0.70448851     0.01600
C1552       C  0.42808566  0.61168684  0.70387760    -0.16200
C1553       C  0.39809168  0.58800099  0.69204884    -0.11000
C1554       C  0.40994126  0.56757248  0.68043442     0.08300
C1555       C  0.52611933  0.60134144  0.69187625     0.09400
S1556       S  0.50553250  0.64595348  0.72025346    -0.25300
H1557       H  0.41967593  0.62852131  0.71250158     0.19600
S1558       S  0.37447590  0.53616155  0.66457149    -0.31000
H1559       H  0.46112435  0.55671872  0.67187943     0.09900
C1560       C  0.53393043  0.56621337  0.69433652     0.03100
C1561       C  0.57646987  0.57300499  0.69220529    -0.13300
C1562       C  0.61104613  0.61408731  0.68744028    -0.09000
C1563       C  0.60328477  0.64959065  0.68536965     0.06600
C1564       C  0.56080967  0.64272948  0.68759070    -0.14100
S1565       S  0.48974092  0.51284628  0.70020537    -0.31000
H1566       H  0.58255137  0.54592098  0.69377904     0.10800
S1567       S  0.64740134  0.70407664  0.68040914    -0.28100
H1568       H  0.55426043  0.66944745  0.68580840     0.08100
H1569       H  0.33548028  0.53466657  0.66919436     0.26500
H1570       H  0.51297915  0.49017353  0.69826785     0.21300
H1571       H  0.62131913  0.72385366  0.67869961     0.26600
H1572       H  0.52743778  0.62170831  0.72103361     0.15500
C1573       C  0.72851850  0.68641888  0.62480599    -0.11800
C1574       C  0.77404095  0.71539089  0.62462500     0.14700
C1575       C  0.79955185  0.71842197  0.63772842     0.01600
C1576       C  0.77879702  0.69209530  0.65068167    -0.16200
C1577       C  0.73297978  0.66370170  0.65103735    -0.11000
C1578       C  0.70774945  0.66039234  0.63774068     0.08300
C1579       C  0.79298364  0.74367969  0.61090659     0.09400
S1580       S  0.85823256  0.75594843  0.63901497    -0.25300
H1581       H  0.79836381  0.69530729  0.66083471     0.19600
S1582       S  0.64913886  0.62319567  0.63628712    -0.31000
H1583       H  0.70896674  0.68416484  0.61474810     0.09900
C1584       C  0.81473360  0.73403566  0.59919100     0.03100
C1585       C  0.83144197  0.76197623  0.58628950    -0.13300
C1586       C  0.82645447  0.79911926  0.58491946    -0.09000
C1587       C  0.80522684  0.80888364  0.59691765     0.06600
C1588       C  0.78829967  0.78079509  0.60961449    -0.14100
S1589       S  0.81998163  0.68557584  0.60050899    -0.31000
H1590       H  0.84726920  0.75423655  0.57704804     0.10800
S1591       S  0.79976719  0.85729683  0.59705382    -0.28100
H1592       H  0.77182569  0.78824755  0.61872409     0.08100
H1593       H  0.64941817  0.58919878  0.64480979     0.26500
H1594       H  0.84569473  0.69371909  0.58711334     0.21300
H1595       H  0.84129051  0.88496189  0.59042108     0.26600
H1596       H  0.86276584  0.78405158  0.62672917     0.15500
C1597       C  0.31992462  0.00459659  0.86967883    -0.11800
C1598       C  0.29014787  0.99647634  0.85755981     0.14700
C1599       C  0.30267282  0.02668391  0.84519261     0.01600
C1600       C  0.34397225  0.06504027  0.84548523    -0.16200
C1601       C  0.37345401  0.07341350  0.85772033    -0.11000
C1602       C  0.36168549  0.04232271  0.86976169     0.08300
C1603       C  0.24550780  0.95750825  0.85862472     0.09400
S1604       S  0.26748925  0.01804406  0.82876759    -0.25300
H1605       H  0.35308877  0.08870084  0.83615821     0.19600
S1606       S  0.39854727  0.04835662  0.88537412    -0.31000
H1607       H  0.31050355  0.98130122  0.87913618     0.09900
C1608       C  0.23822419  0.91449483  0.85682942     0.03100
C1609       C  0.19560394  0.87845584  0.85881752    -0.13300
C1610       C  0.16032900  0.88465348  0.86288223    -0.09000
C1611       C  0.16769975  0.92803804  0.86421213     0.06600
C1612       C  0.21012565  0.96382047  0.86213694    -0.14100
S1613       S  0.28332299  0.90561719  0.85214063    -0.31000
H1614       H  0.19007559  0.84533595  0.85779822     0.10800
S1615       S  0.12455111  0.94022503  0.86838323    -0.28100
H1616       H  0.21576248  0.99695723  0.86342472     0.08100
H1617       H  0.43813731  0.07458685  0.87735701     0.26500
H1618       H  0.25969951  0.85951913  0.85360141     0.21300
H1619       H  0.09151505  0.90398381  0.86022440     0.26600
H1620       H  0.24716706  0.97187855  0.82878952     0.15500
C1621       C  0.99842938  0.78999863  0.92302935    -0.11800
C1622       C  0.99877381  0.82966919  0.92538165     0.14700
C1623       C  0.01809724  0.86319757  0.91414363     0.01600
C1624       C  0.03495796  0.85571078  0.90055734    -0.16200
C1625       C  0.03501683  0.81613271  0.89815814    -0.11000
C1626       C  0.01720567  0.78326633  0.90974659     0.08300
C1627       C  0.98036686  0.83604500  0.93990377     0.09400
S1628       S  0.02350077  0.91667987  0.91672239    -0.25300
H1629       H  0.04928324  0.88158937  0.89194890     0.19600
S1630       S  0.02063919  0.73381837  0.90897031    -0.31000
H1631       H  0.98473474  0.76469748  0.93185975     0.09900
C1632       C  0.93925982  0.83408475  0.94022696     0.03100
C1633       C  0.92477070  0.84371295  0.95402457    -0.13300
C1634       C  0.95085802  0.85574552  0.96743744    -0.09000
C1635       C  0.99132469  0.85610612  0.96721408     0.06600
C1636       C  0.00565524  0.84638012  0.95345575    -0.14100
S1637       S  0.90544823  0.81969063  0.92305753    -0.31000
H1638       H  0.89365098  0.84319499  0.95426452     0.10800
S1639       S  0.02575819  0.86801915  0.98411406    -0.28100
H1640       H  0.03710344  0.84753850  0.95322767     0.08100
H1641       H  0.06333404  0.75422331  0.90266296     0.26500
H1642       H  0.87529104  0.83151701  0.92879285     0.21300
H1643       H  0.99087837  0.85023843  0.99479809     0.26600
H1644       H  0.03121477  0.91924499  0.93276452     0.15500
C1645       C  0.77908400  0.50870713  0.86302492    -0.11800
C1646       C  0.81688461  0.50636850  0.85963243     0.14700
C1647       C  0.81337528  0.46496154  0.85730134     0.01600
C1648       C  0.77198004  0.42695850  0.85773019    -0.16200
C1649       C  0.73386412  0.42911757  0.86081708    -0.11000
C1650       C  0.73769528  0.47051549  0.86377846     0.08300
C1651       C  0.85917904  0.54749312  0.85747669     0.09400
S1652       S  0.86030242  0.45859592  0.85321850    -0.25300
H1653       H  0.76950566  0.39536027  0.85563868     0.19600
S1654       S  0.69058327  0.47682519  0.86724366    -0.31000
H1655       H  0.78172696  0.54052252  0.86471306     0.09900
C1656       C  0.87615027  0.56218703  0.84254561     0.03100
C1657       C  0.91882357  0.59787862  0.84089770    -0.13300
C1658       C  0.94466536  0.61990183  0.85386160    -0.09000
C1659       C  0.92667167  0.60663560  0.86885356     0.06600
C1660       C  0.88402710  0.57031296  0.87049252    -0.14100
S1661       S  0.84350436  0.53530701  0.82557297    -0.31000
H1662       H  0.93218075  0.60884342  0.82941429     0.10800
S1663       S  0.95848423  0.63349892  0.88594826    -0.28100
H1664       H  0.87052707  0.55855426  0.88191077     0.08100
H1665       H  0.68383263  0.45839671  0.88216175     0.26500
H1666       H  0.87503130  0.56222198  0.81453596     0.21300
H1667       H  0.92355485  0.61312310  0.89657752     0.26600
H1668       H  0.89105996  0.49530971  0.86175808     0.15500
C1669       C  0.09898405  0.63982077  0.80574886    -0.11800
C1670       C  0.11618813  0.67358969  0.79471535     0.14700
C1671       C  0.11549660  0.71272380  0.79766585     0.01600
C1672       C  0.09662557  0.71683408  0.81138527    -0.16200
C1673       C  0.07840736  0.68268637  0.82233773    -0.11000
C1674       C  0.08057531  0.64404597  0.81955358     0.08300
C1675       C  0.13216802  0.66579893  0.77988941     0.09400
S1676       S  0.13633442  0.75763642  0.78405716    -0.25300
H1677       H  0.09492027  0.74643724  0.81328748     0.19600
S1678       S  0.06127447  0.59926823  0.83318729    -0.31000
H1679       H  0.09973228  0.60982010  0.80353403     0.09900
C1680       C  0.17519289  0.67281555  0.77835819     0.03100
C1681       C  0.18811701  0.66288053  0.76429162    -0.13300
C1682       C  0.15854924  0.64525883  0.75183576    -0.09000
C1683       C  0.11577596  0.63936244  0.75327973     0.06600
C1684       C  0.10301398  0.64943557  0.76731540    -0.14100
S1685       S  0.21353605  0.69421557  0.79432207    -0.31000
H1686       H  0.22095858  0.66762909  0.76312297     0.10800
S1687       S  0.07635804  0.62001313  0.73760955    -0.28100
H1688       H  0.07003652  0.64436972  0.76848486     0.08100
H1689       H  0.07281351  0.62610715  0.84642798     0.26500
H1690       H  0.24597288  0.68699734  0.78768448     0.21300
H1691       H  0.10766400  0.63997584  0.72574219     0.26600
H1692       H  0.17071700  0.75202503  0.77838671     0.15500
C1693       C  0.39724410  0.19984149  0.27651188    -0.11800
C1694       C  0.36653122  0.15487088  0.27564309     0.14700
C1695       C  0.36560758  0.12651807  0.28740369     0.01600
C1696       C  0.39600969  0.14357518  0.29955379    -0.16200
C1697       C  0.42753611  0.18862779  0.30034520    -0.11000
C1698       C  0.42793354  0.21689426  0.28855460     0.08300
C1699       C  0.34083626  0.13765570  0.26121997     0.09400
S1700       S  0.32686233  0.06820916  0.28735491    -0.25300
H1701       H  0.39480649  0.12142030  0.30851581     0.19600
S1702       S  0.46893154  0.27414063  0.28728521    -0.31000
H1703       H  0.39888868  0.22145558  0.26724954     0.09900
C1704       C  0.30771902  0.14703781  0.25677579     0.03100
C1705       C  0.28396235  0.12867041  0.24304797    -0.13300
C1706       C  0.29332958  0.10171703  0.23365817    -0.09000
C1707       C  0.32907677  0.09564557  0.23760262     0.06600
C1708       C  0.35168778  0.11285184  0.25142322    -0.14100
S1709       S  0.29421212  0.18035156  0.26894732    -0.31000
H1710       H  0.25683746  0.13366571  0.24000183     0.10800
S1711       S  0.34852350  0.06742823  0.22532223    -0.28100
H1712       H  0.37847107  0.10730542  0.25451672     0.08100
H1713       H  0.50391530  0.26743586  0.29147967     0.26500
H1714       H  0.26573414  0.18409240  0.25837185     0.21300
H1715       H  0.33896716  0.08163260  0.21136622     0.26600
H1716       H  0.29277513  0.07137393  0.27999916     0.15500
C1717       C  0.18220464  0.80729083  0.19142663    -0.11800
C1718       C  0.22131014  0.84640164  0.19480632     0.14700
C1719       C  0.26048826  0.84516891  0.19716365     0.01600
C1720       C  0.25963919  0.80495441  0.19625401    -0.16200
C1721       C  0.22050430  0.76557952  0.19293526    -0.11000
C1722       C  0.18117962  0.76692622  0.19070624     0.08300
C1723       C  0.21917771  0.88685193  0.19765181     0.09400
S1724       S  0.31239067  0.89363179  0.20166809    -0.25300
H1725       H  0.28995457  0.80445719  0.19807365     0.19600
S1726       S  0.12804789  0.71819653  0.18824598    -0.31000
H1727       H  0.15183369  0.80796432  0.19005881     0.09900
C1728       C  0.21715231  0.91249992  0.18547953     0.03100
C1729       C  0.21628232  0.95114720  0.18892229    -0.13300
C1730       C  0.21783369  0.96483909  0.20431067    -0.09000
C1731       C  0.21803861  0.93784451  0.21647660     0.06600
C1732       C  0.21912868  0.89957668  0.21299307    -0.14100
S1733       S  0.21858146  0.89754745  0.16559518    -0.31000
H1734       H  0.21663606  0.97188405  0.17958221     0.10800
S1735       S  0.21635656  0.94974853  0.23670045    -0.28100
H1736       H  0.21992278  0.87939318  0.22234470     0.08100
H1737       H  0.13626172  0.69243504  0.19869090     0.26500
H1738       H  0.21362058  0.93126391  0.15882717     0.21300
H1739       H  0.18952779  0.96855610  0.23456658     0.26600
H1740       H  0.30407048  0.92356168  0.19365704     0.15500
C1741       C  0.06471311  0.04531688  0.13782371    -0.11800
C1742       C  0.07761351  0.02171340  0.12823297     0.14700
C1743       C  0.11280463  0.01555585  0.13274188     0.01600
C1744       C  0.13523192  0.03436722  0.14655850    -0.16200
C1745       C  0.12324180  0.05925926  0.15595885    -0.11000
C1746       C  0.08670441  0.06368195  0.15169213     0.08300
C1747       C  0.05495514  0.00622050  0.11325108     0.09400
S1748       S  0.13244438  0.98674381  0.12089837    -0.25300
H1749       H  0.16337469  0.03105952  0.14966127     0.19600
S1750       S  0.06617548  0.09194450  0.16342993    -0.31000
H1751       H  0.03741138  0.04968900  0.13439764     0.09900
C1752       C  0.01719032  0.96440181  0.11172719     0.03100
C1753       C  0.99494191  0.95223684  0.09752480    -0.13300
C1754       C  0.00875550  0.98178300  0.08501769    -0.09000
C1755       C  0.04673819  0.02381036  0.08662815     0.06600
C1756       C  0.06934171  0.03551543  0.10073519    -0.14100
S1757       S  0.99665987  0.92717897  0.12800874    -0.31000
H1758       H  0.96574208  0.92013700  0.09630490     0.10800
S1759       S  0.06842249  0.06374343  0.07118015    -0.28100
H1760       H  0.09814867  0.06790671  0.10204556     0.08100
H1761       H  0.07632076  0.07961973  0.17766353     0.26500
H1762       H  0.95675315  0.89600954  0.12108830     0.21300
H1763       H  0.05634247  0.03287978  0.05913143     0.26600
H1764       H  0.09097008  0.95526525  0.11515762     0.15500
C1765       C  0.22267003  0.26293818  0.20008526    -0.11800
C1766       C  0.21570840  0.28334254  0.18733959     0.14700
C1767       C  0.20381135  0.26147733  0.17295839     0.01600
C1768       C  0.19758115  0.21908891  0.17179183    -0.16200
C1769       C  0.20315823  0.19762371  0.18463391    -0.11000
C1770       C  0.21678494  0.22055946  0.19891889     0.08300
C1771       C  0.21799723  0.32604801  0.18960821     0.09400
S1772       S  0.19379099  0.28472949  0.15583674    -0.25300
H1773       H  0.18768970  0.20256052  0.16069508     0.19600
S1774       S  0.22389171  0.19682876  0.21639027    -0.31000
H1775       H  0.23161778  0.27975634  0.21114805     0.09900
C1776       C  0.17967693  0.32827430  0.19249762     0.03100
C1777       C  0.18254636  0.36947750  0.19333924    -0.13300
C1778       C  0.22303328  0.40841345  0.19142832    -0.09000
C1779       C  0.26151650  0.40601404  0.18878479     0.06600
C1780       C  0.25867172  0.36486537  0.18810990    -0.14100
S1781       S  0.12717278  0.27859008  0.19503271    -0.31000
H1782       H  0.15320057  0.37151065  0.19545598     0.10800
S1783       S  0.31464256  0.45380131  0.18534484    -0.28100
H1784       H  0.28802545  0.36297472  0.18578122     0.08100
H1785       H  0.26083403  0.19586453  0.21055240     0.26500
H1786       H  0.10186615  0.29918065  0.19678477     0.21300
H1787       H  0.29884587  0.47859055  0.17778735     0.26600
H1788       H  0.22173987  0.32919325  0.15960766     0.15500
C1789       C  0.30848638  0.01346509  0.36980884    -0.11800
C1790       C  0.29154360  0.99568681  0.35522915     0.14700
C1791       C  0.31348155  0.01926176  0.34180210     0.01600
C1792       C  0.35328841  0.05881706  0.34320468    -0.16200
C1793       C  0.37149379  0.07610194  0.35779701    -0.11000
C1794       C  0.34822719  0.05322566  0.37125215     0.08300
C1795       C  0.25250975  0.95127737  0.35422695     0.09400
S1796       S  0.29254606  0.99996561  0.32259512    -0.25300
H1797       H  0.37009495  0.07632846  0.33278560     0.19600
S1798       S  0.36857876  0.07114290  0.39055330    -0.31000
H1799       H  0.29153497  0.99532628  0.38012514     0.09900
C1800       C  0.25654445  0.91489149  0.34981796     0.03100
C1801       C  0.21850339  0.87436292  0.34715648    -0.13300
C1802       C  0.17637391  0.86927521  0.34891519    -0.09000
C1803       C  0.17258085  0.90551846  0.35402277     0.06600
C1804       C  0.21071875  0.94594989  0.35680203    -0.14100
S1805       S  0.31011628  0.92015927  0.34735512    -0.31000
H1806       H  0.22162513  0.84656244  0.34349797     0.10800
S1807       S  0.12053247  0.90349761  0.35611694    -0.28100
H1808       H  0.20782601  0.97406341  0.36024302     0.08100
H1809       H  0.41207584  0.08218354  0.38699412     0.26500
H1810       H  0.29521396  0.87482157  0.34641744     0.21300
H1811       H  0.10269005  0.87996321  0.34230273     0.26600
H1812       H  0.24780164  0.98060438  0.32659502     0.15500
C1813       C  0.08821919  0.69238538  0.29305805    -0.11800
C1814       C  0.13054998  0.69855307  0.29085112     0.14700
C1815       C  0.16425801  0.72427845  0.30148398     0.01600
C1816       C  0.15521183  0.74389022  0.31390195    -0.16200
C1817       C  0.11316185  0.73876679  0.31603172    -0.11000
C1818       C  0.07930271  0.71273832  0.30536758     0.08300
C1819       C  0.13992491  0.68139990  0.27664035     0.09400
S1820       S  0.21987788  0.73458174  0.29956131    -0.25300
H1821       H  0.18153396  0.76367712  0.32195420     0.19600
S1822       S  0.02544305  0.70726961  0.30594900    -0.31000
H1823       H  0.06254178  0.67329880  0.28470498     0.09900
C1824       C  0.12781153  0.63684235  0.27514713     0.03100
C1825       C  0.14002568  0.62284421  0.26179373    -0.13300
C1826       C  0.16412877  0.65264002  0.24990229    -0.09000
C1827       C  0.17456274  0.69704689  0.25125546     0.06600
C1828       C  0.16287222  0.71093521  0.26465932    -0.14100
S1829       S  0.09878446  0.59845300  0.29058828    -0.31000
H1830       H  0.13190943  0.58885385  0.26080985     0.10800
S1831       S  0.20117562  0.73735579  0.23616019    -0.28100
H1832       H  0.17158179  0.74510952  0.26576629     0.08100
H1833       H  0.04081855  0.75138992  0.31005639     0.26500
H1834       H  0.09361836  0.56082336  0.28296296     0.21300
H1835       H  0.17879196  0.70777841  0.22402465     0.26600
H1836       H  0.20887769  0.69462121  0.29224926     0.15500
C1837       C  0.97486524  0.87319675  0.43802894    -0.11800
C1838       C  0.95889292  0.82817799  0.43574543     0.14700
C1839       C  0.93440532  0.79820672  0.44763665     0.01600
C1840       C  0.92447806  0.81351681  0.46110602    -0.16200
C1841       C  0.93952298  0.85849598  0.46335732    -0.11000
C1842       C  0.96529153  0.88868440  0.45158942     0.08300
C1843       C  0.96687221  0.81301695  0.42070966     0.09400
S1844       S  0.91510088  0.74001276  0.44641700    -0.25300
H1845       H  0.90551257  0.79001189  0.47007789     0.19600
S1846       S  0.98502313  0.94691712  0.45267083    -0.31000
H1847       H  0.99377455  0.89630462  0.42895116     0.09900
C1848       C  0.93207448  0.78795931  0.41036007     0.03100
C1849       C  0.93976922  0.76889845  0.39734405    -0.13300
C1850       C  0.98188996  0.77526102  0.39418418    -0.09000
C1851       C  0.01731010  0.80290622  0.40409570     0.06600
C1852       C  0.00943744  0.82167052  0.41714168    -0.14100
S1853       S  0.87785962  0.78030710  0.41374758    -0.31000
H1854       H  0.91271552  0.74859550  0.38963959     0.10800
S1855       S  0.07256783  0.81303139  0.40149482    -0.28100
H1856       H  0.03632014  0.84140844  0.42500338     0.08100
H1857       H  0.94512908  0.94156992  0.45841663     0.26500
H1858       H  0.85949767  0.76029836  0.39945576     0.21300
H1859       H  0.05943330  0.76902985  0.39796827     0.26600
H1860       H  0.94928166  0.74368482  0.43692341     0.15500
C1861       C  0.87339095  0.56621311  0.37226522    -0.11800
C1862       C  0.85250360  0.55547368  0.35780256     0.14700
C1863       C  0.86884138  0.58681337  0.34574566     0.01600
C1864       C  0.90462563  0.62883644  0.34864657    -0.16200
C1865       C  0.92431622  0.64017066  0.36333568    -0.11000
C1866       C  0.90936107  0.60800094  0.37511424     0.08300
C1867       C  0.81116592  0.51307079  0.35633725     0.09400
S1868       S  0.84451838  0.57588912  0.32668364    -0.25300
H1869       H  0.91631624  0.65330505  0.33951984     0.19600
S1870       S  0.93493701  0.61800685  0.39392680    -0.31000
H1871       H  0.86101573  0.54202789  0.38148842     0.09900
C1872       C  0.81102105  0.47317641  0.35451072     0.03100
C1873       C  0.77071786  0.43345237  0.35446004    -0.13300
C1874       C  0.73076678  0.43300065  0.35653286    -0.09000
C1875       C  0.73115639  0.47329254  0.35793092     0.06600
C1876       C  0.77132734  0.51276977  0.35794375    -0.14100
S1877       S  0.86213042  0.47298634  0.35243002    -0.31000
H1878       H  0.77032639  0.40257606  0.35321339     0.10800
S1879       S  0.68168026  0.47675234  0.35933540    -0.28100
H1880       H  0.77162856  0.54359595  0.35932071     0.08100
H1881       H  0.97779624  0.64776328  0.38875477     0.26500
H1882       H  0.84372087  0.42702376  0.35297747     0.21300
H1883       H  0.65632656  0.44105245  0.34941614     0.26600
H1884       H  0.82587650  0.52994853  0.32708455     0.15500
C1885       C  0.11274774  0.17866343  0.02587536    -0.11800
C1886       C  0.15232209  0.17789121  0.02627440     0.14700
C1887       C  0.15109965  0.13710014  0.02559219     0.01600
C1888       C  0.11034205  0.09805224  0.02479304    -0.16200
C1889       C  0.07072363  0.09884485  0.02463209    -0.11000
C1890       C  0.07199357  0.13963007  0.02498065     0.08300
C1891       C  0.19396391  0.22015964  0.02819900     0.09400
S1892       S  0.20014930  0.13261514  0.02585472    -0.25300
H1893       H  0.10948592  0.06677385  0.02453433     0.19600
S1894       S  0.02194336  0.14228675  0.02361173    -0.31000
H1895       H  0.11395329  0.21006344  0.02632258     0.09900
C1896       C  0.21049635  0.25214881  0.01637082     0.03100
C1897       C  0.24843937  0.29295180  0.01913738    -0.13300
C1898       C  0.26976611  0.30244946  0.03354657    -0.09000
C1899       C  0.25434583  0.26958015  0.04508445     0.06600
C1900       C  0.21635998  0.22904687  0.04236910    -0.14100
S1901       S  0.18295942  0.24121020  0.99785385    -0.31000
H1902       H  0.26054999  0.31819254  0.01029321     0.10800
S1903       S  0.28220488  0.27712926  0.06334781    -0.28100
H1904       H  0.20397018  0.20427577  0.05139429     0.08100
H1905       H  0.04117796  0.18754991  0.02671442     0.26500
H1906       H  0.21214255  0.28194049  0.99098193     0.21300
H1907       H  0.32473936  0.30579422  0.05762405     0.26600
H1908       H  0.22877849  0.17415430  0.01944470     0.15500
C1909       C  0.35268270  0.49008910  0.08601174    -0.11800
C1910       C  0.30937643  0.47401231  0.09119438     0.14700
C1911       C  0.27429588  0.44003653  0.08281303     0.01600
C1912       C  0.28330420  0.42111209  0.07012377    -0.16200
C1913       C  0.32669180  0.43625503  0.06498733    -0.11000
C1914       C  0.36170662  0.47212155  0.07294001     0.08300
C1915       C  0.30149149  0.49200152  0.10562423     0.09400
S1916       S  0.21720879  0.41911087  0.08776542    -0.25300
H1917       H  0.25577371  0.39445638  0.06408436     0.19600
S1918       S  0.41861692  0.49490249  0.06762705    -0.31000
H1919       H  0.37972078  0.51649618  0.09232576     0.09900
C1920       C  0.28935093  0.46757753  0.11951523     0.03100
C1921       C  0.27847986  0.48403073  0.13256222    -0.13300
C1922       C  0.27928592  0.52438100  0.13201736    -0.09000
C1923       C  0.29138671  0.54871539  0.11807164     0.06600
C1924       C  0.30312161  0.53271145  0.10514428    -0.14100
S1925       S  0.28790214  0.41551466  0.12065285    -0.31000
H1926       H  0.26943107  0.46550627  0.14327273     0.10800
S1927       S  0.28965916  0.59879433  0.11571800    -0.28100
H1928       H  0.31167498  0.55115840  0.09441316     0.08100
H1929       H  0.41310411  0.51168133  0.05352336     0.26500
H1930       H  0.26854294  0.40350321  0.13541341     0.21300
H1931       H  0.25314696  0.58649065  0.12543020     0.26600
H1932       H  0.22265659  0.45857693  0.09391899     0.15500
C1933       C  0.50971144  0.35165584  0.94185474    -0.11800
C1934       C  0.46727718  0.34576916  0.94267179     0.14700
C1935       C  0.43688134  0.32322500  0.93064602     0.01600
C1936       C  0.44970923  0.30704890  0.91807409    -0.16200
C1937       C  0.49229935  0.31292478  0.91726064    -0.11000
C1938       C  0.52240263  0.33518468  0.92943754     0.08300
C1939       C  0.45673393  0.36484571  0.95608130     0.09400
S1940       S  0.38189417  0.31508595  0.93043206    -0.25300
H1941       H  0.42657763  0.29053133  0.90871849     0.19600
S1942       S  0.57708878  0.34267212  0.93014764    -0.31000
H1943       H  0.53306864  0.36898875  0.95107801     0.09900
C1944       C  0.44805249  0.34464659  0.97075257     0.03100
C1945       C  0.44142970  0.36554050  0.98345046    -0.13300
C1946       C  0.44464576  0.40680920  0.98180554    -0.09000
C1947       C  0.45270923  0.42657581  0.96702736     0.06600
C1948       C  0.45873516  0.40544879  0.95434004    -0.14100
S1949       S  0.44668988  0.29292761  0.97333847    -0.31000
H1950       H  0.43555196  0.35063229  0.99481634     0.10800
S1951       S  0.45542739  0.47851771  0.96363112    -0.28100
H1952       H  0.46567851  0.42103173  0.94306099     0.08100
H1953       H  0.56516384  0.30136807  0.92372347     0.26500
H1954       H  0.44272029  0.29127556  0.98955715     0.21300
H1955       H  0.42458799  0.47290123  0.97509031     0.26600
H1956       H  0.37687015  0.31536602  0.94655099     0.15500
C1957       C  0.63675996  0.69582977  0.01595595    -0.11800
C1958       C  0.63236100  0.66102438  0.02521987     0.14700
C1959       C  0.66665512  0.66803279  0.03548920     0.01600
C1960       C  0.70533881  0.70895020  0.03570480    -0.16200
C1961       C  0.70991476  0.74337252  0.02625243    -0.11000
C1962       C  0.67485681  0.73720557  0.01659471     0.08300
C1963       C  0.59335251  0.61704459  0.02290758     0.09400
S1964       S  0.66341965  0.62617541  0.04842634    -0.25300
H1965       H  0.73228160  0.71381552  0.04315693     0.19600
S1966       S  0.67712498  0.78049905  0.00467084    -0.28000
H1967       H  0.61047375  0.69054618  0.00808046     0.09900
C1968       C  0.55121767  0.60688283  0.02802236     0.03100
C1969       C  0.51492949  0.56507156  0.02491725    -0.13300
C1970       C  0.51999059  0.53332953  0.01667810    -0.09000
C1971       C  0.56289649  0.54359241  0.01202443     0.06600
C1972       C  0.59875356  0.58530506  0.01504112    -0.14100
S1973       S  0.54388843  0.64721394  0.03851442    -0.31000
H1974       H  0.48237687  0.55746472  0.02859442     0.10800
S1975       S  0.57494613  0.50489483  0.00270724    -0.28100
H1976       H  0.63135313  0.59312261  0.01127451     0.08100
H1977       H  0.70478110  0.81549843  0.01449884     0.26500
H1978       H  0.49855308  0.62018756  0.04134600     0.21300
H1979       H  0.54607347  0.46911965  0.01204284     0.26600
H1980       H  0.61726415  0.60222109  0.04959155     0.15500
C1981       C  0.98759617  0.48563785  0.58771650    -0.11800
C1982       C  0.02367638  0.48038096  0.59131338     0.14700
C1983       C  0.03410556  0.45476889  0.58153095     0.01600
C1984       C  0.00781064  0.43433823  0.56860280    -0.16200
C1985       C  0.97092656  0.43851410  0.56508137    -0.11000
C1986       C  0.96072017  0.46448361  0.57488367     0.08300
C1987       C  0.04643787  0.49702957  0.60627618     0.09400
S1988       S  0.07965711  0.44560021  0.58509840    -0.25300
H1989       H  0.01630787  0.41476930  0.56123500     0.19600
S1990       S  0.91198712  0.46881300  0.57257147    -0.31000
H1991       H  0.97895697  0.50443597  0.59543945     0.09900
C1992       C  0.07718344  0.54184986  0.60870098     0.03100
C1993       C  0.10076790  0.55491106  0.62266736    -0.13300
C1994       C  0.09396993  0.52401320  0.63426625    -0.09000
C1995       C  0.06111755  0.47943558  0.63207363     0.06600
C1996       C  0.03825728  0.46648830  0.61806305    -0.14100
S1997       S  0.08794214  0.58193562  0.59374942    -0.31000
H1998       H  0.12575725  0.58905348  0.62432822     0.10800
S1999       S  0.04595183  0.43749537  0.64668460    -0.28100
H2000       H  0.01394775  0.43213560  0.61625741     0.08100
H2001       H  0.88426791  0.42394434  0.56911031     0.26500
H2002       H  0.12078716  0.61860207  0.60177232     0.21300
H2003       H  0.05259213  0.46550955  0.65929142     0.26600
H2004       H  0.10525454  0.48330985  0.59410990     0.15500
C2005       C  0.88921291  0.15673644  0.54055087    -0.11800
C2006       C  0.89955947  0.18175929  0.52696759     0.14700
C2007       C  0.90592071  0.16464793  0.51304441     0.01600
C2008       C  0.90148490  0.12270649  0.51305044    -0.16200
C2009       C  0.89129107  0.09758374  0.52667273    -0.11000
C2010       C  0.88491297  0.11494694  0.54057977     0.08300
C2011       C  0.90428369  0.22587567  0.52791078     0.09400
S2012       S  0.92131375  0.19491108  0.49503345    -0.25300
H2013       H  0.90716924  0.11001756  0.50240195     0.19600
S2014       S  0.87063113  0.08546091  0.55871409    -0.31000
H2015       H  0.88432858  0.16991046  0.55123095     0.09900
C2016       C  0.86788091  0.23196569  0.52581720     0.03100
C2017       C  0.87348906  0.27425550  0.52736366    -0.13300
C2018       C  0.91482269  0.31045681  0.53103959    -0.09000
C2019       C  0.95160069  0.30430375  0.53250542     0.06600
C2020       C  0.94575907  0.26204293  0.53118969    -0.14100
S2021       S  0.81429466  0.18565857  0.52136557    -0.31000
H2022       H  0.84535138  0.27890408  0.52625015     0.10800
S2023       S  0.00705100  0.34908288  0.53545663    -0.28100
H2024       H  0.97381720  0.25730838  0.53257617     0.08100
H2025       H  0.84487404  0.04342381  0.55217772     0.26500
H2026       H  0.79167777  0.20925133  0.52081366     0.21300
H2027       H  0.00153912  0.37975405  0.52668113     0.26600
H2028       H  0.90864273  0.22595574  0.49858945     0.15500
C2029       C  0.90223432  0.60685111  0.50945794    -0.11800
C2030       C  0.88263281  0.61311927  0.52258286     0.14700
C2031       C  0.86207512  0.57885260  0.53356738     0.01600
C2032       C  0.85953765  0.53836968  0.53070347    -0.16200
C2033       C  0.87814200  0.53186980  0.51731792    -0.11000
C2034       C  0.90128426  0.56716036  0.50694611     0.08300
C2035       C  0.88254029  0.65500993  0.52396126     0.09400
S2036       S  0.83824273  0.58449608  0.55130829    -0.25300
H2037       H  0.84228249  0.51153176  0.53882132     0.19600
S2038       S  0.93159052  0.56434107  0.49060403    -0.31000
H2039       H  0.91860256  0.63326430  0.50112105     0.09900
C2040       C  0.92196663  0.69541100  0.52595642     0.03100
C2041       C  0.92046773  0.73447705  0.52648221    -0.13300
C2042       C  0.88044282  0.73404374  0.52492870    -0.09000
C2043       C  0.84089439  0.69344834  0.52311284     0.06600
C2044       C  0.84245052  0.65446519  0.52251621    -0.14100
S2045       S  0.97419318  0.69732892  0.52789553    -0.31000
H2046       H  0.95071134  0.76567494  0.52780254     0.10800
S2047       S  0.78746536  0.68902103  0.52198014    -0.28100
H2048       H  0.81217408  0.62338943  0.52094955     0.08100
H2049       H  0.94039267  0.53266988  0.49695361     0.26500
H2050       H  0.00012272  0.74299272  0.53027735     0.21300
H2051       H  0.79736272  0.72349019  0.53242261     0.26600
H2052       H  0.86421574  0.63050640  0.55251413     0.15500
C2053       C  0.78977197  0.40309568  0.45726734    -0.11800
C2054       C  0.75423740  0.36016758  0.45880168     0.14700
C2055       C  0.74898508  0.33720043  0.47280481     0.01600
C2056       C  0.77795432  0.35858957  0.48518815    -0.16200
C2057       C  0.81291865  0.40210555  0.48375912    -0.11000
C2058       C  0.81940816  0.42389129  0.46939918     0.08300
C2059       C  0.72430797  0.34078776  0.44533050     0.09400
S2060       S  0.70625822  0.28080116  0.47555311    -0.25300
H2061       H  0.77276025  0.34136907  0.49608249     0.19600
S2062       S  0.86580146  0.47754981  0.46551861    -0.31000
H2063       H  0.79468192  0.42047601  0.44641527     0.09900
C2064       C  0.68163034  0.33533743  0.44511876     0.03100
C2065       C  0.65658117  0.32126518  0.43145631    -0.13300
C2066       C  0.67359899  0.31327896  0.41793919    -0.09000
C2067       C  0.71648220  0.31916297  0.41814909     0.06600
C2068       C  0.74106143  0.33236201  0.43184765    -0.14100
S2069       S  0.65973949  0.34817944  0.46194918    -0.31000
H2070       H  0.62365318  0.31664300  0.43123741     0.10800
S2071       S  0.74287802  0.31278641  0.40124504    -0.28100
H2072       H  0.77423413  0.33755990  0.43188118     0.08100
H2073       H  0.89552857  0.47112651  0.47453856     0.26500
H2074       H  0.62192375  0.34414520  0.45472195     0.21300
H2075       H  0.71971105  0.32253856  0.39015712     0.26600
H2076       H  0.70404243  0.26807910  0.46000316     0.15500
C2077       C  0.55022890  0.49060134  0.87320630    -0.11800
C2078       C  0.55580025  0.51340099  0.85932100     0.14700
C2079       C  0.55899550  0.49475520  0.84527175     0.01600
C2080       C  0.55677503  0.45383220  0.84541841    -0.16200
C2081       C  0.55156150  0.43103627  0.85934542    -0.11000
C2082       C  0.54783018  0.44966173  0.87338655     0.08300
C2083       C  0.56171296  0.55806740  0.86010359     0.09400
S2084       S  0.56733625  0.52228482  0.82692362    -0.25300
H2085       H  0.56007567  0.44011516  0.83460523     0.19600
S2086       S  0.53940306  0.42280656  0.89189007    -0.31000
H2087       H  0.54805097  0.50504264  0.88401653     0.09900
C2088       C  0.52573440  0.56491932  0.86202814     0.03100
C2089       C  0.53346241  0.60803223  0.86354650    -0.13300
C2090       C  0.57655093  0.64421395  0.86369785    -0.09000
C2091       C  0.61240910  0.63709013  0.86149129     0.06600
C2092       C  0.60457865  0.59418915  0.85972231    -0.14100
S2093       S  0.47024653  0.51872153  0.86299124    -0.31000
H2094       H  0.50603361  0.61351623  0.86529657     0.10800
S2095       S  0.66883697  0.68111618  0.86067791    -0.28100
H2096       H  0.63218722  0.58879950  0.85823657     0.08100
H2097       H  0.50996675  0.38047146  0.88620567     0.26500
H2098       H  0.44919610  0.54331034  0.86551305     0.21300
H2099       H  0.65953580  0.71252487  0.85441300     0.26600
H2100       H  0.54221551  0.54215006  0.83049073     0.15500
C2101       C  0.70884114  0.80556593  0.91149856    -0.11800
C2102       C  0.68841098  0.81003710  0.92476789     0.14700
C2103       C  0.64366656  0.79879881  0.92393932     0.01600
C2104       C  0.61987429  0.78067475  0.91023763    -0.16200
C2105       C  0.63997323  0.77435000  0.89723212    -0.11000
C2106       C  0.68531364  0.78836008  0.89775219     0.08300
C2107       C  0.71489509  0.82571368  0.93920383     0.09400
S2108       S  0.61487188  0.80613863  0.93991092    -0.25300
H2109       H  0.58517171  0.77049195  0.90983334     0.19600
S2110       S  0.71513747  0.78553577  0.88124145    -0.31000
H2111       H  0.74338555  0.81512401  0.91191576     0.09900
C2112       C  0.70668203  0.79762007  0.95199653     0.03100
C2113       C  0.73456734  0.81326135  0.96496517    -0.13300
C2114       C  0.77053044  0.85646340  0.96548278    -0.09000
C2115       C  0.77922487  0.88409570  0.95247005     0.06600
C2116       C  0.75116558  0.86861538  0.93960787    -0.14100
S2117       S  0.66184743  0.74132744  0.95163008    -0.31000
H2118       H  0.72838773  0.79172192  0.97476317     0.10800
S2119       S  0.82717471  0.93824743  0.95109145    -0.28100
H2120       H  0.75827922  0.88986086  0.92963363     0.08100
H2121       H  0.68891186  0.79049477  0.87000097     0.26500
H2122       H  0.66518834  0.73154076  0.96719492     0.21300
H2123       H  0.85561019  0.92673991  0.95857133     0.26600
H2124       H  0.65218144  0.84023931  0.94723010     0.15500
C2125       C  0.45167890  0.73559527  0.79210366    -0.11800
C2126       C  0.41656684  0.69237837  0.79363160     0.14700
C2127       C  0.41211370  0.66895237  0.80744170     0.01600
C2128       C  0.44177512  0.68998491  0.81962515    -0.16200
C2129       C  0.47514521  0.73422156  0.81840794    -0.11000
C2130       C  0.48088242  0.75675139  0.80428714     0.08300
C2131       C  0.38564152  0.67329068  0.78047779     0.09400
S2132       S  0.36835830  0.61312910  0.81046340    -0.25300
H2133       H  0.43725343  0.67249561  0.83042312     0.19600
S2134       S  0.52481789  0.81241219  0.80100472    -0.31000
H2135       H  0.45597540  0.75320458  0.78134511     0.09900
C2136       C  0.35926708  0.69102844  0.77582578     0.03100
C2137       C  0.33404962  0.67553219  0.76229561    -0.13300
C2138       C  0.33476660  0.64280162  0.75308639    -0.09000
C2139       C  0.36121886  0.62488275  0.75799709     0.06600
C2140       C  0.38564390  0.63984442  0.77169959    -0.14100
S2141       S  0.35750790  0.73333919  0.78719833    -0.31000
H2142       H  0.31370945  0.68922196  0.75887907     0.10800
S2143       S  0.36854805  0.58565640  0.74690055    -0.28100
H2144       H  0.40655972  0.62679896  0.77517308     0.08100
H2145       H  0.55522880  0.81019955  0.81104737     0.26500
H2146       H  0.32677270  0.73755993  0.77797702     0.21300
H2147       H  0.37403422  0.60824974  0.73295448     0.26600
H2148       H  0.33652525  0.61698906  0.80179358     0.15500
C2149       C  0.55054278  0.01092057  0.87154933    -0.11800
C2150       C  0.54860085  0.99089622  0.85732374     0.14700
C2151       C  0.54863376  0.01220394  0.84346467     0.01600
C2152       C  0.54881862  0.05206164  0.84411504    -0.16200
C2153       C  0.55015190  0.07207692  0.85834210    -0.11000
C2154       C  0.55111569  0.05103715  0.87223969     0.08300
C2155       C  0.54207410  0.94588886  0.85716245     0.09400
S2156       S  0.54863746  0.99024375  0.82457875    -0.25300
H2157       H  0.54872455  0.06796742  0.83337034     0.19600
S2158       S  0.55016375  0.07186924  0.89123042    -0.31000
H2159       H  0.54994057  0.99433006  0.88220589     0.09900
C2160       C  0.57621543  0.93738186  0.86086238     0.03100
C2161       C  0.56928077  0.89462149  0.85895576    -0.13300
C2162       C  0.52889931  0.86031294  0.85337337    -0.09000
C2163       C  0.49402775  0.86875213  0.85051469     0.06600
C2164       C  0.50114072  0.91131455  0.85236308    -0.14100
S2165       S  0.62938900  0.98149934  0.86699229    -0.31000
H2166       H  0.59604905  0.88836779  0.86112182     0.10800
S2167       S  0.43954664  0.82697136  0.84456089    -0.28100
H2168       H  0.47466166  0.91779371  0.84980158     0.08100
H2169       H  0.51848732  0.08365741  0.88733535     0.26500
H2170       H  0.64904938  0.95553383  0.86932871     0.21300
H2171       H  0.43928128  0.79299049  0.85327167     0.26600
H2172       H  0.57050127  0.96761019  0.82900469     0.15500
C2173       C  0.00196259  0.32585607  0.69739014    -0.11800
C2174       C  0.96281167  0.32392039  0.69260548     0.14700
C2175       C  0.96269534  0.36335523  0.68947898     0.01600
C2176       C  0.00240042  0.40334592  0.68989270    -0.16200
C2177       C  0.04182762  0.40500791  0.69399711    -0.11000
C2178       C  0.04126703  0.36608722  0.69843894     0.08300
C2179       C  0.92377637  0.28014496  0.68996043     0.09400
S2180       S  0.91342654  0.36486013  0.68462727    -0.25300
H2181       H  0.00270108  0.43333340  0.68674313     0.19600
S2182       S  0.08932282  0.36569966  0.70563190    -0.31000
H2183       H  0.00197230  0.29573803  0.70013292     0.09900
C2184       C  0.90857308  0.26491923  0.67485927     0.03100
C2185       C  0.87291603  0.22231482  0.67277374    -0.13300
C2186       C  0.85263417  0.19422444  0.68543557    -0.09000
C2187       C  0.86902051  0.20913149  0.70050851     0.06600
C2188       C  0.90387443  0.25212524  0.70262378    -0.14100
S2189       S  0.93571651  0.29897312  0.65819122    -0.31000
H2190       H  0.86076640  0.21075774  0.66120466     0.10800
S2191       S  0.84937553  0.17415641  0.71732453    -0.28100
H2192       H  0.91651362  0.26345424  0.71418397     0.08100
H2193       H  0.10830598  0.40722725  0.71275570     0.26500
H2194       H  0.90807587  0.26900593  0.64688036     0.21300
H2195       H  0.84105603  0.13549560  0.70958625     0.26600
H2196       H  0.88363289  0.32516500  0.69194346     0.15500
C2197       C  0.80317485  0.06612021  0.62510146    -0.11800
C2198       C  0.79570431  0.02312659  0.62617199     0.14700
C2199       C  0.78084023  0.00010379  0.64033898     0.01600
C2200       C  0.77468475  0.02103737  0.65315320    -0.16200
C2201       C  0.78313371  0.06449687  0.65214913    -0.11000
C2202       C  0.79684158  0.08689029  0.63782435     0.08300
C2203       C  0.80672928  0.00490072  0.61254778     0.09400
S2204       S  0.77099953  0.94493285  0.64309719    -0.25300
H2205       H  0.76459389  0.00379034  0.66411616     0.19600
S2206       S  0.80678590  0.14203972  0.63494576    -0.31000
H2207       H  0.81449315  0.08383620  0.61425676     0.09900
C2208       C  0.77614407  0.98304964  0.60056255     0.03100
C2209       C  0.78901629  0.96844034  0.58749463    -0.13300
C2210       C  0.83221077  0.97598769  0.58602245    -0.09000
C2211       C  0.86240603  0.99713066  0.59829821     0.06600
C2212       C  0.84949266  0.01173407  0.61127098    -0.14100
S2213       S  0.72098821  0.97439807  0.60185916    -0.31000
H2214       H  0.76569514  0.95209363  0.57819585     0.10800
S2215       S  0.91733383  0.00510551  0.59845035    -0.28100
H2216       H  0.87296132  0.02846405  0.62051664     0.08100
H2217       H  0.77459497  0.13853061  0.64545464     0.26500
H2218       H  0.70629064  0.95400784  0.58734880     0.21300
H2219       H  0.90519791  0.96406914  0.59174504     0.26600
H2220       H  0.76551083  0.93222834  0.62748614     0.15500
C2221       C  0.54102093  0.91250958  0.68464119    -0.11800
C2222       C  0.51739582  0.88907729  0.69776101     0.14700
C2223       C  0.53238793  0.90727540  0.71259067     0.01600
C2224       C  0.56975943  0.94890762  0.71395696    -0.16200
C2225       C  0.59307330  0.97313922  0.70086452    -0.11000
C2226       C  0.57827489  0.95454752  0.68599669     0.08300
C2227       C  0.47590288  0.84691735  0.69567952     0.09400
S2228       S  0.50471162  0.87969394  0.73022199    -0.25300
H2229       H  0.58074351  0.96253122  0.72543158     0.19600
S2230       S  0.60308874  0.98377368  0.66832625    -0.31000
H2231       H  0.52922859  0.89871177  0.67323913     0.09900
C2232       C  0.43472005  0.84413976  0.69760047     0.03100
C2233       C  0.39623055  0.80298794  0.69679166    -0.13300
C2234       C  0.39798430  0.76455972  0.69387650    -0.09000
C2235       C  0.43937583  0.76755105  0.69180839     0.06600
C2236       C  0.47781474  0.80877101  0.69252408    -0.14100
S2237       S  0.43113642  0.89300202  0.70100767    -0.31000
H2238       H  0.36451925  0.80069098  0.69835865     0.10800
S2239       S  0.44560889  0.72000142  0.68922598    -0.28100
H2240       H  0.50957186  0.81097306  0.69120868     0.08100
H2241       H  0.60934028  0.02438658  0.67364250     0.26500
H2242       H  0.38513172  0.87290747  0.69938231     0.21300
H2243       H  0.41084420  0.69240706  0.69915091     0.26600
H2244       H  0.48703947  0.83648215  0.72467955     0.15500
C2245       C  0.68720116  0.15626672  0.75390984    -0.11800
C2246       C  0.64472146  0.14796797  0.75741623     0.14700
C2247       C  0.60947886  0.12098858  0.74746164     0.01600
C2248       C  0.61724539  0.10194395  0.73452692    -0.16200
C2249       C  0.65956732  0.10911597  0.73109357    -0.11000
C2250       C  0.69500868  0.13720540  0.74091690     0.08300
C2251       C  0.63720799  0.16491962  0.77208489     0.09400
S2252       S  0.55336530  0.10751459  0.75105636    -0.25300
H2253       H  0.58959176  0.08062180  0.72718593     0.19600
S2254       S  0.74974612  0.14612163  0.73854977    -0.31000
H2255       H  0.71420114  0.17653080  0.76165787     0.09900
C2256       C  0.62163085  0.13801515  0.78533409     0.03100
C2257       C  0.60925396  0.15294632  0.79838834    -0.13300
C2258       C  0.61332000  0.19481230  0.79860875    -0.09000
C2259       C  0.63090021  0.22252243  0.78553266     0.06600
C2260       C  0.64287418  0.20735490  0.77246107    -0.14100
S2261       S  0.61759101  0.08468923  0.78559295    -0.31000
H2262       H  0.59651251  0.13204205  0.80850158     0.10800
S2263       S  0.63668600  0.27650273  0.78446129    -0.28100
H2264       H  0.65499721  0.22805387  0.76227375     0.08100
H2265       H  0.75615172  0.16840418  0.72440764     0.26500
H2266       H  0.60796035  0.07630000  0.80145370     0.21300
H2267       H  0.59799328  0.26549036  0.79273371     0.26600
H2268       H  0.56319342  0.14626361  0.75899708     0.15500
loop_ 
_geom_bond_atom_site_label_1 
_geom_bond_atom_site_label_2 
_geom_bond_distance 
_geom_bond_site_symmetry_2 
_ccdc_geom_bond_type 
C1            N2   1.356       .  A
C1            N6   1.360       .  A
C1         C2249   1.490       .  S
N2            C3   1.356       .  A
C3            N4   1.359       .  A
C3         C2225   1.482   1_545  S
N4            C5   1.360       .  A
C5            N6   1.364       .  A
C5           C11   1.475       .  S
C7            N8   1.355       .  A
C7           N12   1.362       .  A
C7         C2201   1.479       .  S
N8            C9   1.355       .  A
C9           N10   1.358       .  A
C9         C2186   1.476       .  S
N10          C11   1.359       .  A
C11          N12   1.364       .  A
C13          N14   1.354       .  A
C13          N18   1.356       .  A
C13        C2129   1.472       .  S
N14          C15   1.355       .  A
C15          N16   1.361       .  A
C15        C2162   1.482       .  S
N16          C17   1.362       .  A
C17          N18   1.360       .  A
C17          C21   1.470       .  S
C19          N20   1.359       .  A
C19          N24   1.359       .  A
C19        C2105   1.474       .  S
N20          C21   1.360       .  A
C21          N22   1.360       .  A
N22          C23   1.358       .  A
C23          N24   1.358       .  A
C23        C2090   1.477       .  S
C25          N26   1.358       .  A
C25          N30   1.363       .  A
C25        C2057   1.483       .  S
N26          C27   1.356       .  A
C27          N28   1.355       .  A
C27        C2033   1.470       .  S
N28          C29   1.359       .  A
C29          N30   1.364       .  A
C29          C33   1.474       .  S
C31          N32   1.359       .  A
C31          N36   1.355       .  A
C31        C1985   1.484       .  S
N32          C33   1.362       .  A
C33          N34   1.361       .  A
N34          C35   1.361       .  A
C35          N36   1.355       .  A
C35        C2018   1.477       .  S
C37          N38   1.356   1_556  A
C37          N42   1.355       .  A
C37        C1946   1.473       .  S
N38          C39   1.360       .  A
C39          N40   1.361       .  A
C39          C45   1.471       .  S
N40          C41   1.362       .  A
C41          N42   1.357   1_554  A
C41        C1970   1.485       .  S
C43          N44   1.363       .  A
C43          N48   1.360       .  A
C43        C1913   1.496       .  S
N44          C45   1.363       .  A
C45          N46   1.358       .  A
N46          C47   1.355       .  A
C47          N48   1.356       .  A
C47        C1898   1.473       .  S
C49          N50   1.359       .  A
C49          N54   1.360   1_655  A
C49        C1850   1.485       .  S
N50          C51   1.358       .  A
C51          N52   1.355       .  A
C51        C1865   1.470       .  S
N52          C53   1.356   1_655  A
C53          N54   1.361       .  A
C53          C57   1.468       .  S
C55          N56   1.360       .  A
C55          N60   1.355       .  A
C55        C1817   1.482       .  S
N56          C57   1.363       .  A
C57          N58   1.358       .  A
N58          C59   1.357       .  A
C59          N60   1.355       .  A
C59        C1802   1.477       .  S
C61          N62   1.358       .  A
C61          N66   1.355       .  A
C61        C1745   1.474       .  S
N62          C63   1.359       .  A
C63          N64   1.358       .  A
C63          C69   1.468       .  S
N64          C65   1.356       .  A
C65          N66   1.356       .  A
C65        C1769   1.487       .  S
C67          N68   1.357       .  A
C67          N72   1.353       .  A
C67        C1706   1.477       .  S
N68          C69   1.362       .  A
C69          N70   1.362       .  A
N70          C71   1.359       .  A
C71          N72   1.352       .  A
C71        C1730   1.481   1_545  S
C73          N74   1.362       .  A
C73          N78   1.356       .  A
C73        C1673   1.483       .  S
N74          C75   1.363       .  A
C75          N76   1.358       .  A
C75          C81   1.473       .  S
N76          C77   1.357   1_455  A
C77          N78   1.358   1_655  A
C77        C1658   1.477       .  S
C79          N80   1.361       .  A
C79          N84   1.354       .  A
C79        C1625   1.482       .  S
N80          C81   1.363       .  A
C81          N82   1.360       .  A
N82          C83   1.359       .  A
C83          N84   1.354       .  A
C83        C1610   1.478       .  S
C85          N86   1.361       .  A
C85          N90   1.352       .  A
C85        C1577   1.480       .  S
N86          C87   1.364       .  A
C87          N88   1.361       .  A
C87          C93   1.475       .  S
N88          C89   1.359       .  A
C89          N90   1.353       .  A
C89        C1562   1.473       .  S
C91          N92   1.363       .  A
C91          N96   1.356       .  A
C91        C1514   1.489       .  S
N92          C93   1.365       .  A
C93          N94   1.360       .  A
N94          C95   1.358       .  A
C95          N96   1.356       .  A
C95        C1538   1.480       .  S
C97          N98   1.359       .  A
C97         N102   1.356       .  A
C97        C1481   1.479       .  S
N98          C99   1.362       .  A
C99         N100   1.359       .  A
C99         C105   1.476       .  S
N100        C101   1.360       .  A
C101        N102   1.358       .  A
C101       C1457   1.485       .  S
C103        N104   1.365       .  A
C103        N108   1.361       .  A
C103       C1409   1.492       .  S
N104        C105   1.365       .  A
C105        N106   1.358       .  A
N106        C107   1.356       .  A
C107        N108   1.359       .  A
C107       C1442   1.476       .  S
C109        N110   1.356   1_556  A
C109        N114   1.358   1_556  A
C109       C1361   1.474       .  S
N110        C111   1.356       .  A
C111        N112   1.357       .  A
C111       C1385   1.478       .  S
N112        C113   1.360       .  A
C113        N114   1.360       .  A
C113        C117   1.466       .  S
C115        N116   1.356       .  A
C115        N120   1.357       .  A
C115       C1346   1.475       .  S
N116        C117   1.358       .  A
C117        N118   1.360       .  A
N118        C119   1.359       .  A
C119        N120   1.358       .  A
C119       C1313   1.475       .  S
C121        N122   1.358       .  A
C121        N126   1.354       .  A
C121       C1265   1.474       .  S
N122        C123   1.362       .  A
C123        N124   1.363       .  A
C123        C129   1.473       .  S
N124        C125   1.361       .  A
C125        N126   1.355       .  A
C125       C1298   1.483       .  S
C127        N128   1.360       .  A
C127        N132   1.358       .  A
C127       C1241   1.487       .  S
N128        C129   1.362       .  A
C129        N130   1.360       .  A
N130        C131   1.358   1_455  A
C131        N132   1.355   1_655  A
C131       C1217   1.481       .  S
C133        N134   1.362       .  A
C133        N138   1.356       .  A
C133       C1169   1.479       .  S
N134        C135   1.364       .  A
C135        N136   1.360       .  A
C135        C141   1.476       .  S
N136        C137   1.358       .  A
C137        N138   1.356       .  A
C137       C1202   1.476       .  S
C139        N140   1.360       .  A
C139        N144   1.355   1_545  A
C139       C1130   1.485       .  S
N140        C141   1.364       .  A
C141        N142   1.362       .  A
N142        C143   1.360   1_545  A
C143        N144   1.356       .  A
C143       C1154   1.479       .  S
C145        N146   1.355       .  A
C145        N150   1.358       .  A
C145       C1106   1.472       .  S
N146        C147   1.355       .  A
C147        N148   1.358       .  A
C147       C1082   1.477       .  S
N148        C149   1.361       .  A
C149        N150   1.360       .  A
C149        C155   1.467       .  S
C151        N152   1.355       .  A
C151        N156   1.357       .  A
C151       C1049   1.475       .  S
N152        C153   1.355       .  A
C153        N154   1.358       .  A
C153       C1034   1.475       .  S
N154        C155   1.360       .  A
C155        N156   1.359       .  A
C157        N158   1.358       .  A
C157        N162   1.358       .  A
C157       C1001   1.483       .  S
N158        C159   1.359       .  A
C159        N160   1.360       .  A
C159        C167   1.467       .  S
N160        C161   1.358       .  A
C161        N162   1.359       .  A
C161        C977   1.480       .  S
C163        N164   1.355   1_545  A
C163        N168   1.359       .  A
C163        C962   1.488       .  S
N164        C165   1.355   1_565  A
C165        N166   1.357       .  A
C165        C938   1.477   1_545  S
N166        C167   1.361       .  A
C167        N168   1.361       .  A
C169        N170   1.361       .  A
C169        N174   1.357       .  A
C169        C881   1.484       .  S
N170        C171   1.362       .  A
C171        N172   1.360       .  A
C171        C177   1.472       .  S
N172        C173   1.358       .  A
C173        N174   1.356       .  A
C173        C905   1.479       .  S
C175        N176   1.358       .  A
C175        N180   1.357       .  A
C175        C833   1.489       .  S
N176        C177   1.361       .  A
C177        N178   1.361       .  A
N178        C179   1.360       .  A
C179        N180   1.355       .  A
C179        C866   1.482       .  S
C181        N182   1.356       .  A
C181        N186   1.357       .  A
C181        C794   1.485       .  S
N182        C183   1.355       .  A
C183        N184   1.359       .  A
C183        C818   1.484       .  S
N184        C185   1.361       .  A
C185        N186   1.359       .  A
C185        C191   1.468       .  S
C187        N188   1.355       .  A
C187        N192   1.358       .  A
C187        C761   1.480       .  S
N188        C189   1.356       .  A
C189        N190   1.359       .  A
C189        C746   1.483       .  S
N190        C191   1.361       .  A
C191        N192   1.361       .  A
C193        N194   1.359   1_556  A
C193        N198   1.357   1_556  A
C193        C722   1.480       .  S
N194        C195   1.363       .  A
C195        N196   1.361       .  A
C195        C203   1.474       .  S
N196        C197   1.360       .  A
C197        N198   1.358       .  A
C197        C689   1.483       .  S
C199        N200   1.360       .  A
C199        N204   1.362       .  A
C199        C641   1.491       .  S
N200        C201   1.361       .  A
C201        N202   1.356       .  A
C201        C665   1.496       .  S
N202        C203   1.358       .  A
C203        N204   1.362       .  A
C205        N206   1.360       .  A
C205        N210   1.357       .  A
C205        C602   1.481       .  S
N206        C207   1.362       .  A
C207        N208   1.361       .  A
C207        C215   1.477       .  S
N208        C209   1.360       .  A
C209        N210   1.357       .  A
C209        C626   1.484       .  S
C211        N212   1.359       .  A
C211        N216   1.361   1_655  A
C211        C545   1.484       .  S
N212        C213   1.359       .  A
C213        N214   1.360       .  A
C213        C569   1.479       .  S
N214        C215   1.361   1_655  A
C215        N216   1.361       .  A
O217       Zr253   2.438       .  S
O217        C228   1.293       .  A
O218       Zr252   2.423       .  S
O218        C229   1.288       .  A
O219       Zr225   2.441       .  S
O219        C230   1.293       .  A
O220       Zr225   2.444       .  S
O220        C231   1.293       .  A
O221       Zr255   2.429       .  S
O221        C231   1.291       .  A
O222       Zr254   2.443       .  S
O222        C230   1.293       .  A
O223       Zr225   2.440       .  S
O223        C229   1.293       .  A
O224       Zr225   2.438       .  S
O224        C228   1.292       .  A
Zr225       O226   2.335       .  S
Zr225       O227   2.344       .  S
Zr225       O235   2.340       .  S
Zr225       O233   2.342       .  S
O226       Zr252   2.334       .  S
O226       Zr255   2.333       .  S
O227       Zr253   2.342       .  S
O227       Zr254   2.342       .  S
C228       C2258   1.476       .  S
C229       C1649   1.475       .  S
C230       C1505   1.479       .  S
C231        C578   1.478       .  S
H232        O233   0.966       .  S
O233       Zr252   2.335       .  S
O233       Zr254   2.344       .  S
H234        O235   0.967       .  S
O235       Zr253   2.341       .  S
O235       Zr255   2.343       .  S
O236       Zr252   2.419       .  S
O236        C259   1.288       .  A
O237       Zr253   2.441       .  S
O237        C260   1.292       .  A
O238       Zr254   2.438       .  S
O238        C261   1.292       .  A
O239       Zr255   2.450       .  S
O239        C262   1.296       .  A
O240       Zr255   2.434       .  S
O240        C263   1.291       .  A
O241       Zr254   2.444       .  S
O241        C264   1.293       .  A
O242       Zr256   2.425       .  S
O242        C265   1.289       .  A
O243       Zr256   2.438       .  S
O243        C266   1.293       .  A
O244       Zr254   2.447       .  S
O244        C265   1.294       .  A
O245       Zr255   2.438       .  S
O245        C266   1.291       .  A
O246       Zr252   2.434       .  S
O246        C261   1.291       .  A
O247       Zr253   2.447       .  S
O247        C264   1.293       .  A
O248       Zr253   2.441       .  S
O248        C263   1.294       .  A
O249       Zr252   2.435       .  S
O249        C262   1.289       .  A
O250       Zr256   2.446       .  S
O250        C259   1.293       .  A
O251       Zr256   2.434       .  S
O251        C260   1.291       .  A
Zr252       O258   2.335       .  S
Zr252       O270   2.336       .  S
Zr253       O257   2.344       .  S
Zr253       O268   2.339       .  S
Zr254       O258   2.341       .  S
Zr254       O268   2.342       .  S
Zr255       O257   2.341       .  S
Zr255       O270   2.339       .  S
Zr256       O257   2.338       .  S
Zr256       O258   2.339       .  S
Zr256       O270   2.338       .  S
Zr256       O268   2.347       .  S
C259       C1937   1.475       .  S
C260       C1601   1.468       .  S
C261       C2081   1.478       .  S
C262        C713   1.501       .  S
C263       C2153   1.482       .  S
C264       C1010   1.479       .  S
C265        C617   1.468       .  S
C266       C1370   1.490       .  S
H267        O268   0.965       .  S
H269        O270   0.966       .  S
O271       Zr307   2.438   1_556  S
O271        C282   1.292       .  A
O272       Zr306   2.439   1_545  S
O272        C283   1.292       .  A
O273       Zr279   2.439       .  S
O273        C284   1.292       .  A
O274       Zr279   2.441   1_556  S
O274        C285   1.293   1_565  A
O275       Zr309   2.445   1_556  S
O275        C285   1.293   1_565  A
O276       Zr308   2.435       .  S
O276        C284   1.293       .  A
O277       Zr279   2.432   1_545  S
O277        C283   1.292       .  A
O278       Zr279   2.448   1_556  S
O278        C282   1.294       .  A
Zr279       O280   2.343       .  S
Zr279       O281   2.336       .  S
Zr279       O289   2.339   1_554  S
Zr279       O287   2.350       .  S
O280       Zr306   2.342       .  S
O280       Zr309   2.342       .  S
O281       Zr307   2.332       .  S
O281       Zr308   2.342       .  S
C282       C2114   1.483       .  S
C283        C698   1.482       .  S
C284       C1322   1.482       .  S
C285        C554   1.481       .  S
H286        O287   0.965       .  S
O287       Zr306   2.342       .  S
O287       Zr308   2.342       .  S
H288        O289   0.966       .  S
O289       Zr307   2.338   1_556  S
O289       Zr309   2.345   1_556  S
O290       Zr306   2.440       .  S
O290        C313   1.293       .  A
O291       Zr307   2.425       .  S
O291        C314   1.290       .  A
O292       Zr308   2.432       .  S
O292        C315   1.292       .  A
O293       Zr309   2.440   1_445  S
O293        C316   1.292       .  A
O294       Zr309   2.435   1_556  S
O294        C317   1.291       .  A
O295       Zr308   2.424       .  S
O295        C318   1.289       .  A
O296       Zr310   2.437       .  S
O296        C319   1.293       .  A
O297       Zr310   2.426       .  S
O297        C320   1.290   1_655  A
O298       Zr308   2.450       .  S
O298        C319   1.293       .  A
O299       Zr309   2.438   1_455  S
O299        C320   1.292       .  A
O300       Zr306   2.444       .  S
O300        C315   1.293       .  A
O301       Zr307   2.439       .  S
O301        C318   1.292       .  A
O302       Zr307   2.444   1_556  S
O302        C317   1.293       .  A
O303       Zr306   2.438   1_445  S
O303        C316   1.292       .  A
O304       Zr310   2.431       .  S
O304        C313   1.291       .  A
O305       Zr310   2.436       .  S
O305        C314   1.292       .  A
Zr306       O312   2.339       .  S
Zr306       O324   2.339       .  S
Zr307       O311   2.340       .  S
Zr307       O322   2.348       .  S
Zr308       O312   2.331       .  S
Zr308       O322   2.338       .  S
Zr309       O311   2.338       .  S
Zr309       O324   2.339       .  S
Zr310       O311   2.338       .  S
Zr310       O312   2.332       .  S
Zr310       O324   2.342       .  S
Zr310       O322   2.338       .  S
C313       C1754   1.474   1_655  S
C314        C674   1.475       .  S
C315       C1121   1.480       .  S
C316       C1889   1.475       .  S
C317       C1634   1.474       .  S
C318       C1961   1.461       .  S
C319        C770   1.493       .  S
C320       C1394   1.472       .  S
H321        O322   0.966       .  S
H323        O324   0.964       .  S
O325       Zr361   2.446       .  S
O325        C336   1.293       .  A
O326       Zr360   2.437       .  S
O326        C337   1.292       .  A
O327       Zr333   2.441       .  S
O327        C338   1.293       .  A
O328       Zr333   2.447       .  S
O328        C339   1.294       .  A
O329       Zr363   2.428       .  S
O329        C339   1.290       .  A
O330       Zr362   2.452       .  S
O330        C338   1.295       .  A
O331       Zr333   2.435       .  S
O331        C337   1.292       .  A
O332       Zr333   2.437       .  S
O332        C336   1.292       .  A
Zr333       O334   2.339       .  S
Zr333       O335   2.341       .  S
Zr333       O343   2.343       .  S
Zr333       O341   2.344       .  S
O334       Zr360   2.335       .  S
O334       Zr363   2.334       .  S
O335       Zr361   2.339       .  S
O335       Zr362   2.334       .  S
C336       C2066   1.473       .  S
C337       C1025   1.472       .  S
C338        C890   1.490       .  S
C339       C1226   1.484       .  S
H340        O341   0.965       .  S
O341       Zr360   2.353       .  S
O341       Zr362   2.340       .  S
H342        O343   0.964       .  S
O343       Zr361   2.348       .  S
O343       Zr363   2.341       .  S
O344       Zr360   2.445       .  S
O344        C367   1.294       .  A
O345       Zr361   2.444       .  S
O345        C368   1.293       .  A
O346       Zr362   2.436       .  S
O346        C369   1.292       .  A
O347       Zr363   2.432       .  S
O347        C370   1.291       .  A
O348       Zr363   2.429       .  S
O348        C371   1.290       .  A
O349       Zr362   2.442       .  S
O349        C372   1.293       .  A
O350       Zr364   2.453       .  S
O350        C373   1.295       .  A
O351       Zr364   2.448       .  S
O351        C374   1.295       .  A
O352       Zr362   2.428       .  S
O352        C373   1.290       .  A
O353       Zr363   2.428       .  S
O353        C374   1.289       .  A
O354       Zr360   2.433       .  S
O354        C369   1.292       .  A
O355       Zr361   2.445       .  S
O355        C372   1.294       .  A
O356       Zr361   2.441       .  S
O356        C371   1.293       .  A
O357       Zr360   2.452       .  S
O357        C370   1.294       .  A
O358       Zr364   2.436       .  S
O358        C367   1.291       .  A
O359       Zr364   2.431       .  S
O359        C368   1.291       .  A
Zr360       O366   2.335       .  S
Zr360       O378   2.344       .  S
Zr361       O365   2.340       .  S
Zr361       O376   2.344       .  S
Zr362       O366   2.339       .  S
Zr362       O376   2.341       .  S
Zr363       O365   2.338       .  S
Zr363       O378   2.343       .  S
Zr364       O365   2.338       .  S
Zr364       O366   2.332       .  S
Zr364       O378   2.347       .  S
Zr364       O376   2.344       .  S
C367       C1697   1.485       .  S
C368       C1073   1.477       .  S
C369       C1793   1.481       .  S
C370       C1178   1.481       .  S
C371       C1874   1.473       .  S
C372       C1490   1.485       .  S
C373       C1289   1.481       .  S
C374        C785   1.483       .  S
H375        O376   0.967       .  S
H377        O378   0.966       .  S
O379       Zr415   2.446       .  S
O379        C390   1.293       .  A
O380       Zr414   2.435       .  S
O380        C391   1.291       .  A
O381       Zr387   2.432       .  S
O381        C392   1.291       .  A
O382       Zr387   2.437       .  S
O382        C393   1.293       .  A
O383       Zr417   2.437       .  S
O383        C393   1.291       .  A
O384       Zr416   2.426       .  S
O384        C392   1.290       .  A
O385       Zr387   2.433       .  S
O385        C391   1.291       .  A
O386       Zr387   2.425       .  S
O386        C390   1.290       .  A
Zr387       O388   2.333       .  S
Zr387       O389   2.334       .  S
Zr387       O397   2.338       .  S
Zr387       O395   2.341       .  S
O388       Zr414   2.337       .  S
O388       Zr417   2.339       .  S
O389       Zr415   2.333       .  S
O389       Zr416   2.332       .  S
C390       C2234   1.475       .  S
C391       C1682   1.473       .  S
C392        C929   1.473       .  S
C393       C2138   1.492       .  S
H394        O395   0.970       .  S
O395       Zr414   2.340       .  S
O395       Zr416   2.341       .  S
H396        O397   0.959       .  S
O397       Zr415   2.348       .  S
O397       Zr417   2.336       .  S
O398       Zr414   2.422       .  S
O398        C421   1.289       .  A
O399       Zr415   2.455       .  S
O399        C422   1.296       .  A
O400       Zr416   2.433       .  S
O400        C423   1.291       .  A
O401       Zr417   2.436       .  S
O401        C424   1.292       .  A
O402       Zr417   2.437       .  S
O402        C425   1.292       .  A
O403       Zr416   2.438       .  S
O403        C426   1.293       .  A
O404       Zr418   2.428       .  S
O404        C427   1.291       .  A
O405       Zr418   2.433       .  S
O405        C428   1.292       .  A
O406       Zr416   2.436       .  S
O406        C427   1.292       .  A
O407       Zr417   2.440       .  S
O407        C428   1.293       .  A
O408       Zr414   2.449       .  S
O408        C423   1.294       .  A
O409       Zr415   2.443       .  S
O409        C426   1.293       .  A
O410       Zr415   2.430       .  S
O410        C425   1.290       .  A
O411       Zr414   2.448       .  S
O411        C424   1.294       .  A
O412       Zr418   2.455       .  S
O412        C421   1.295       .  A
O413       Zr418   2.463       .  S
O413        C422   1.297       .  A
Zr414       O420   2.342       .  S
Zr414       O432   2.348       .  S
Zr415       O419   2.343       .  S
Zr415       O430   2.344       .  S
Zr416       O420   2.339       .  S
Zr416       O430   2.339       .  S
Zr417       O419   2.344       .  S
Zr417       O432   2.333       .  S
Zr418       O419   2.338       .  S
Zr418       O420   2.344       .  S
Zr418       O432   2.343       .  S
Zr418       O430   2.347       .  S
C421       C2177   1.465       .  S
C422       C1418   1.497       .  S
C423       C1529   1.489       .  S
C424        C593   1.486       .  S
C425       C1553   1.463       .  S
C426        C842   1.482       .  S
C427       C1994   1.477       .  S
C428        C986   1.481       .  S
H429        O430   0.966       .  S
H431        O432   0.967       .  S
O433       Zr469   2.440       .  S
O433        C444   1.292       .  A
O434       Zr468   2.446       .  S
O434        C445   1.294       .  A
O435       Zr441   2.440       .  S
O435        C446   1.294       .  A
O436       Zr441   2.454       .  S
O436        C447   1.295       .  A
O437       Zr471   2.425       .  S
O437        C447   1.290       .  A
O438       Zr470   2.441       .  S
O438        C446   1.292       .  A
O439       Zr441   2.424       .  S
O439        C445   1.290       .  A
O440       Zr441   2.450       .  S
O440        C444   1.294       .  A
Zr441       O442   2.341       .  S
Zr441       O443   2.341       .  S
Zr441       O451   2.338       .  S
Zr441       O449   2.347       .  S
O442       Zr468   2.338       .  S
O442       Zr471   2.339       .  S
O443       Zr469   2.338       .  S
O443       Zr470   2.343       .  S
C444       C1922   1.480       .  S
C445       C1145   1.478       .  S
C446       C1337   1.491       .  S
C447        C809   1.482       .  S
H448        O449   0.967       .  S
O449       Zr468   2.341       .  S
O449       Zr470   2.345       .  S
H450        O451   0.972       .  S
O451       Zr469   2.347       .  S
O451       Zr471   2.347       .  S
O452       Zr468   2.435       .  S
O452        C475   1.291       .  A
O453       Zr469   2.438       .  S
O453        C476   1.292       .  A
O454       Zr470   2.446       .  S
O454        C477   1.293       .  A
O455       Zr471   2.438       .  S
O455        C478   1.291       .  A
O456       Zr471   2.445       .  S
O456        C479   1.293       .  A
O457       Zr470   2.450       .  S
O457        C480   1.294       .  A
O458       Zr472   2.434       .  S
O458        C481   1.291       .  A
O459       Zr472   2.435       .  S
O459        C482   1.292       .  A
O460       Zr470   2.438       .  S
O460        C481   1.293       .  A
O461       Zr471   2.444       .  S
O461        C482   1.293       .  A
O462       Zr468   2.443       .  S
O462        C477   1.293       .  A
O463       Zr469   2.446       .  S
O463        C480   1.293       .  A
O464       Zr469   2.436       .  S
O464        C479   1.292       .  A
O465       Zr468   2.446       .  S
O465        C478   1.294       .  A
O466       Zr472   2.438       .  S
O466        C475   1.292       .  A
O467       Zr472   2.435       .  S
O467        C476   1.292       .  A
Zr468       O474   2.337       .  S
Zr468       O486   2.345       .  S
Zr469       O473   2.340       .  S
Zr469       O484   2.346       .  S
Zr470       O474   2.336       .  S
Zr470       O484   2.345       .  S
Zr471       O473   2.337       .  S
Zr471       O486   2.341       .  S
Zr472       O473   2.336       .  S
Zr472       O474   2.336       .  S
Zr472       O486   2.337       .  S
Zr472       O484   2.346       .  S
C475       C1826   1.480       .  S
C476       C1193   1.476       .  S
C477       C1721   1.484       .  S
C478       C1097   1.489       .  S
C479       C1778   1.471       .  S
C480        C650   1.480       .  S
C481        C737   1.478       .  S
C482       C1250   1.484       .  S
H483        O484   0.967       .  S
H485        O486   0.967       .  S
O487       Zr523   2.448       .  S
O487        C498   1.294       .  A
O488       Zr522   2.444       .  S
O488        C499   1.293       .  A
O489       Zr495   2.440       .  S
O489        C500   1.292       .  A
O490       Zr495   2.424       .  S
O490        C501   1.290       .  A
O491       Zr525   2.446       .  S
O491        C501   1.294       .  A
O492       Zr524   2.433       .  S
O492        C500   1.292       .  A
O493       Zr495   2.436       .  S
O493        C499   1.292       .  A
O494       Zr495   2.441       .  S
O494        C498   1.293       .  A
Zr495       O496   2.341       .  S
Zr495       O497   2.338       .  S
Zr495       O505   2.342       .  S
Zr495       O503   2.335       .  S
O496       Zr522   2.336       .  S
O496       Zr525   2.340       .  S
O497       Zr523   2.342       .  S
O497       Zr524   2.345       .  S
C498       C2210   1.486       .  S
C499       C1433   1.483       .  S
C500        C914   1.475       .  S
C501       C1586   1.475       .  S
H502        O503   0.965       .  S
O503       Zr522   2.338       .  S
O503       Zr524   2.341       .  S
H504        O505   0.966       .  S
O505       Zr523   2.335       .  S
O505       Zr525   2.343       .  S
O506       Zr522   2.443       .  S
O506        C529   1.294       .  A
O507       Zr523   2.435   1_545  S
O507        C530   1.291   1_655  A
O508       Zr524   2.449       .  S
O508        C531   1.295       .  A
O509       Zr525   2.434       .  S
O509        C532   1.291       .  A
O510       Zr525   2.437       .  S
O510        C533   1.292       .  A
O511       Zr524   2.450   1_545  S
O511        C534   1.294       .  A
O512       Zr526   2.439       .  S
O512        C535   1.292   1_565  A
O513       Zr526   2.444   1_455  S
O513        C536   1.292       .  A
O514       Zr524   2.441       .  S
O514        C535   1.293   1_565  A
O515       Zr525   2.447       .  S
O515        C536   1.295   1_655  A
O516       Zr522   2.421       .  S
O516        C531   1.289       .  A
O517       Zr523   2.434   1_545  S
O517        C534   1.291       .  A
O518       Zr523   2.439       .  S
O518        C533   1.292       .  A
O519       Zr522   2.432       .  S
O519        C532   1.291       .  A
O520       Zr526   2.439       .  S
O520        C529   1.292       .  A
O521       Zr526   2.444   1_445  S
O521        C530   1.294       .  A
Zr522       O528   2.342       .  S
Zr522       O540   2.338       .  S
Zr523       O527   2.346       .  S
Zr523       O538   2.341       .  S
Zr524       O528   2.339       .  S
Zr524       O538   2.337       .  S
Zr525       O527   2.344       .  S
Zr525       O540   2.342       .  S
Zr526       O527   2.343       .  S
Zr526       O528   2.342       .  S
Zr526       O540   2.344       .  S
Zr526       O538   2.341       .  S
C529       C1841   1.487       .  S
C530       C1466   1.477       .  S
C531       C1058   1.473       .  S
C532       C2042   1.472       .  S
C533        C953   1.475   1_655  S
C534       C2009   1.479       .  S
C535       C1274   1.477       .  S
C536        C857   1.495       .  S
H537        O538   0.966   1_545  S
H539        O540   0.966       .  S
C541        C542   1.401       .  A
C541        C546   1.399       .  A
C541        H551   1.084       .  S
C542        C547   1.482       .  S
C542        C543   1.413   1_655  A
C543        C544   1.403       .  A
C543        S548   1.804       .  S
C544        C545   1.406   1_455  A
C544        H549   1.084       .  S
C545        C546   1.415       .  A
C546        S550   1.800       .  S
C547        C552   1.408       .  A
C547        C556   1.402       .  A
S548        H564   1.404       .  S
S550        H561   1.407       .  S
C552        C553   1.403       .  A
C552        S557   1.806       .  S
C553        C554   1.405       .  A
C553        H558   1.083       .  S
C554        C555   1.417       .  A
C555        C556   1.402       .  A
C555        S559   1.805   1_545  S
C556        H560   1.084       .  S
S557        H562   1.406       .  S
S559        H563   1.406       .  S
C565        C566   1.402       .  A
C565        C570   1.400       .  A
C565        H575   1.084       .  S
C566        C571   1.482       .  S
C566        C567   1.413       .  A
C567        C568   1.402       .  A
C567        S572   1.804       .  S
C568        C569   1.404       .  A
C568        H573   1.084       .  S
C569        C570   1.414       .  A
C570        S574   1.800       .  S
C571        C576   1.410       .  A
C571        C580   1.402       .  A
S572        H588   1.406       .  S
S574        H585   1.406       .  S
C576        C577   1.403       .  A
C576        S581   1.806       .  S
C577        C578   1.404       .  A
C577        H582   1.083       .  S
C578        C579   1.414       .  A
C579        C580   1.402       .  A
C579        S583   1.808       .  S
C580        H584   1.083       .  S
S581        H586   1.407       .  S
S583        H587   1.406       .  S
C589        C590   1.401       .  A
C589        C594   1.398       .  A
C589        H599   1.084       .  S
C590        C595   1.481       .  S
C590        C591   1.414       .  A
C591        C592   1.404       .  A
C591        S596   1.808       .  S
C592        C593   1.408       .  A
C592        H597   1.084       .  S
C593        C594   1.418       .  A
C594        S598   1.805       .  S
C595        C600   1.409       .  A
C595        C604   1.401       .  A
S596        H612   1.402       .  S
S598        H609   1.406       .  S
C600        C601   1.406       .  A
C600        S605   1.805       .  S
C601        C602   1.405       .  A
C601        H606   1.083       .  S
C602        C603   1.416       .  A
C603        C604   1.399       .  A
C603        S607   1.804       .  S
C604        H608   1.084       .  S
S605        H610   1.407       .  S
S607        H611   1.407       .  S
C613        C614   1.403       .  A
C613        C618   1.398       .  A
C613        H623   1.084       .  S
C614        C619   1.477       .  S
C614        C615   1.412       .  A
C615        C616   1.399       .  A
C615        S620   1.804       .  S
C616        C617   1.403       .  A
C616        H621   1.084       .  S
C617        C618   1.410       .  A
C618        S622   1.805       .  S
C619        C624   1.408       .  A
C619        C628   1.399       .  A
S620        H636   1.404       .  S
S622        H633   1.406       .  S
C624        C625   1.405       .  A
C624        S629   1.806       .  S
C625        C626   1.407       .  A
C625        H630   1.082       .  S
C626        C627   1.418       .  A
C627        C628   1.398       .  A
C627        S631   1.803       .  S
C628        H632   1.084       .  S
S629        H634   1.407       .  S
S631        H635   1.407       .  S
C637        C638   1.402       .  A
C637        C642   1.406       .  A
C637        H647   1.083       .  S
C638        C643   1.486       .  S
C638        C639   1.412       .  A
C639        C640   1.403   1_455  A
C639        S644   1.803   1_455  S
C640        C641   1.407       .  A
C640        H645   1.084       .  S
C641        C642   1.417   1_655  A
C642        S646   1.808       .  S
C643        C648   1.409       .  A
C643        C652   1.402       .  A
S644        H660   1.406   1_655  S
S646        H657   1.407       .  S
C648        C649   1.405       .  A
C648        S653   1.804       .  S
C649        C650   1.405       .  A
C649        H654   1.083       .  S
C650        C651   1.415       .  A
C651        C652   1.402       .  A
C651        S655   1.803       .  S
C652        H656   1.084       .  S
S653        H658   1.408       .  S
S655        H659   1.402       .  S
C661        C662   1.400       .  A
C661        C666   1.401       .  A
C661        H671   1.084       .  S
C662        C667   1.480       .  S
C662        C663   1.409       .  A
C663        C664   1.398       .  A
C663        S668   1.805       .  S
C664        C665   1.409       .  A
C664        H669   1.083       .  S
C665        C666   1.423       .  A
C666        S670   1.800       .  S
C667        C672   1.409       .  A
C667        C676   1.403       .  A
S668        H684   1.407       .  S
S670        H681   1.408       .  S
C672        C673   1.401       .  A
C672        S677   1.806   1_554  S
C673        C674   1.406       .  A
C673        H678   1.083       .  S
C674        C675   1.413       .  A
C675        C676   1.397       .  A
C675        S679   1.805       .  S
C676        H680   1.084       .  S
S677        H682   1.407       .  S
S679        H683   1.407       .  S
C685        C686   1.401       .  A
C685        C690   1.401       .  A
C685        H695   1.084       .  S
C686        C691   1.479       .  S
C686        C687   1.411       .  A
C687        C688   1.398       .  A
C687        S692   1.805       .  S
C688        C689   1.406       .  A
C688        H693   1.084       .  S
C689        C690   1.417       .  A
C690        S694   1.802       .  S
C691        C696   1.409       .  A
C691        C700   1.400       .  A
S692        H708   1.405       .  S
S694        H705   1.407       .  S
C696        C697   1.401       .  A
C696        S701   1.807   1_554  S
C697        C698   1.407       .  A
C697        H702   1.083   1_554  S
C698        C699   1.418       .  A
C699        C700   1.399       .  A
C699        S703   1.803       .  S
C700        H704   1.084       .  S
S701        H706   1.407       .  S
S703        H707   1.408       .  S
C709        C710   1.403       .  A
C709        C714   1.404       .  A
C709        H719   1.084       .  S
C710        C715   1.494       .  S
C710        C711   1.413       .  A
C711        C712   1.398       .  A
C711        S716   1.803       .  S
C712        C713   1.408       .  A
C712        H717   1.083       .  S
C713        C714   1.425       .  A
C714        S718   1.803       .  S
C715        C720   1.415       .  A
C715        C724   1.405       .  A
S716        H732   1.407       .  S
S718        H729   1.408       .  S
C720        C721   1.408       .  A
C720        S725   1.807       .  S
C721        C722   1.404       .  A
C721        H726   1.083       .  S
C722        C723   1.412       .  A
C723        C724   1.400       .  A
C723        S727   1.804   1_556  S
C724        H728   1.084       .  S
S725        H730   1.406       .  S
S727        H731   1.407       .  S
C733        C734   1.403       .  A
C733        C738   1.402   1_655  A
C733        H743   1.084       .  S
C734        C739   1.481       .  S
C734        C735   1.411       .  A
C735        C736   1.394   1_655  A
C735        S740   1.804       .  S
C736        C737   1.401       .  A
C736        H741   1.081       .  S
C737        C738   1.417       .  A
C738        S742   1.802       .  S
C739        C744   1.409       .  A
C739        C748   1.400       .  A
S740        H756   1.406       .  S
S742        H753   1.406       .  S
C744        C745   1.406       .  A
C744        S749   1.806       .  S
C745        C746   1.406       .  A
C745        H750   1.083       .  S
C746        C747   1.417       .  A
C747        C748   1.396       .  A
C747        S751   1.805       .  S
C748        H752   1.084       .  S
S749        H754   1.406       .  S
S751        H755   1.408       .  S
C757        C758   1.402       .  A
C757        C762   1.397       .  A
C757        H767   1.084       .  S
C758        C763   1.483       .  S
C758        C759   1.414       .  A
C759        C760   1.403       .  A
C759        S764   1.805       .  S
C760        C761   1.405       .  A
C760        H765   1.084       .  S
C761        C762   1.414       .  A
C762        S766   1.804       .  S
C763        C768   1.409       .  A
C763        C772   1.400       .  A
S764        H780   1.405       .  S
S766        H777   1.407       .  S
C768        C769   1.403       .  A
C768        S773   1.808       .  S
C769        C770   1.409       .  A
C769        H774   1.083       .  S
C770        C771   1.421       .  A
C771        C772   1.401       .  A
C771        S775   1.801       .  S
C772        H776   1.084       .  S
S773        H778   1.406       .  S
S775        H779   1.405       .  S
C781        C782   1.401       .  A
C781        C786   1.400       .  A
C781        H791   1.084       .  S
C782        C787   1.477       .  S
C782        C783   1.410       .  A
C783        C784   1.395       .  A
C783        S788   1.805       .  S
C784        C785   1.403       .  A
C784        H789   1.077       .  S
C785        C786   1.419       .  A
C786        S790   1.802       .  S
C787        C792   1.408       .  A
C787        C796   1.400       .  A
S788        H804   1.405       .  S
S790        H801   1.406       .  S
C792        C793   1.399       .  A
C792        S797   1.808       .  S
C793        C794   1.407       .  A
C793        H798   1.081       .  S
C794        C795   1.417       .  A
C795        C796   1.400       .  A
C795        S799   1.799       .  S
C796        H800   1.084       .  S
S797        H802   1.407       .  S
S799        H803   1.408       .  S
C805        C806   1.402       .  A
C805        C810   1.401       .  A
C805        H815   1.084       .  S
C806        C811   1.477       .  S
C806        C807   1.411       .  A
C807        C808   1.396       .  A
C807        S812   1.805       .  S
C808        C809   1.405       .  A
C808        H813   1.082       .  S
C809        C810   1.416       .  A
C810        S814   1.802       .  S
C811        C816   1.408       .  A
C811        C820   1.398       .  A
S812        H828   1.405       .  S
S814        H825   1.405       .  S
C816        C817   1.405       .  A
C816        S821   1.806       .  S
C817        C818   1.408       .  A
C817        H822   1.082       .  S
C818        C819   1.418       .  A
C819        C820   1.395       .  A
C819        S823   1.803       .  S
C820        H824   1.084       .  S
S821        H826   1.407       .  S
S823        H827   1.407       .  S
C829        C830   1.403       .  A
C829        C834   1.403       .  A
C829        H839   1.084       .  S
C830        C835   1.480       .  S
C830        C831   1.410       .  A
C831        C832   1.396       .  A
C831        S836   1.806       .  S
C832        C833   1.407       .  A
C832        H837   1.083       .  S
C833        C834   1.418       .  A
C834        S838   1.800       .  S
C835        C840   1.409       .  A
C835        C844   1.401       .  A
S836        H852   1.405       .  S
S838        H849   1.407       .  S
C840        C841   1.402       .  A
C840        S845   1.807       .  S
C841        C842   1.405       .  A
C841        H846   1.083       .  S
C842        C843   1.418       .  A
C843        C844   1.402       .  A
C843        S847   1.803       .  S
C844        H848   1.084       .  S
S845        H850   1.405       .  S
S847        H851   1.407       .  S
C853        C854   1.400       .  A
C853        C858   1.401       .  A
C853        H863   1.084       .  S
C854        C859   1.482       .  S
C854        C855   1.411       .  A
C855        C856   1.400       .  A
C855        S860   1.805       .  S
C856        C857   1.409       .  A
C856        H861   1.084       .  S
C857        C858   1.422       .  A
C858        S862   1.799       .  S
C859        C864   1.409       .  A
C859        C868   1.400       .  A
S860        H876   1.406       .  S
S862        H873   1.405       .  S
C864        C865   1.405       .  A
C864        S869   1.805       .  S
C865        C866   1.406       .  A
C865        H870   1.083       .  S
C866        C867   1.415       .  A
C867        C868   1.400       .  A
C867        S871   1.808       .  S
C868        H872   1.083       .  S
S869        H874   1.407       .  S
S871        H875   1.407       .  S
C877        C878   1.404       .  A
C877        C882   1.404       .  A
C877        H887   1.084       .  S
C878        C883   1.482       .  S
C878        C879   1.412       .  A
C879        C880   1.398   1_545  A
C879        S884   1.806       .  S
C880        C881   1.405       .  A
C880        H885   1.084       .  S
C881        C882   1.416   1_565  A
C882        S886   1.802       .  S
C883        C888   1.407       .  A
C883        C892   1.401       .  A
S884        H900   1.404       .  S
S886        H897   1.407       .  S
C888        C889   1.405       .  A
C888        S893   1.806       .  S
C889        C890   1.407       .  A
C889        H894   1.078       .  S
C890        C891   1.419       .  A
C891        C892   1.401       .  A
C891        S895   1.804       .  S
C892        H896   1.084       .  S
S893        H898   1.406       .  S
S895        H899   1.407       .  S
C901        C902   1.400       .  A
C901        C906   1.398       .  A
C901        H911   1.084       .  S
C902        C907   1.477       .  S
C902        C903   1.411       .  A
C903        C904   1.400       .  A
C903        S908   1.803       .  S
C904        C905   1.405       .  A
C904        H909   1.084       .  S
C905        C906   1.416       .  A
C906        S910   1.804       .  S
C907        C912   1.408       .  A
C907        C916   1.401       .  A
S908        H924   1.404       .  S
S910        H921   1.407       .  S
C912        C913   1.403       .  A
C912        S917   1.806       .  S
C913        C914   1.406       .  A
C913        H918   1.083       .  S
C914        C915   1.414       .  A
C915        C916   1.398       .  A
C915        S919   1.805   1_565  S
C916        H920   1.084       .  S
S917        H922   1.407       .  S
S919        H923   1.407       .  S
C925        C926   1.400       .  A
C925        C930   1.398       .  A
C925        H935   1.084       .  S
C926        C931   1.473       .  S
C926        C927   1.413       .  A
C927        C928   1.396       .  A
C927        S932   1.807       .  S
C928        C929   1.404       .  A
C928        H933   1.085       .  S
C929        C930   1.414       .  A
C930        S934   1.803       .  S
C931        C936   1.406       .  A
C931        C940   1.402       .  A
S932        H948   1.404       .  S
S934        H945   1.408       .  S
C936        C937   1.397       .  A
C936        S941   1.807       .  S
C937        C938   1.405       .  A
C937        H942   1.083       .  S
C938        C939   1.415       .  A
C939        C940   1.401       .  A
C939        S943   1.801   1_565  S
C940        H944   1.084       .  S
S941        H946   1.407       .  S
S943        H947   1.406       .  S
C949        C950   1.402   1_545  A
C949        C954   1.401       .  A
C949        H959   1.084       .  S
C950        C955   1.479   1_565  S
C950        C951   1.413       .  A
C951        C952   1.398       .  A
C951        S956   1.804       .  S
C952        C953   1.403       .  A
C952        H957   1.084   1_455  S
C953        C954   1.414   1_565  A
C954        S958   1.804       .  S
C955        C960   1.407   1_545  A
C955        C964   1.401       .  A
S956        H972   1.405       .  S
S958        H969   1.407       .  S
C960        C961   1.399       .  A
C960        S965   1.807       .  S
C961        C962   1.409   1_565  A
C961        H966   1.082       .  S
C962        C963   1.419       .  A
C963        C964   1.402       .  A
C963        S967   1.801       .  S
C964        H968   1.084       .  S
S965        H970   1.407       .  S
S967        H971   1.407       .  S
C973        C974   1.400       .  A
C973        C978   1.396       .  A
C973        H983   1.084       .  S
C974        C979   1.476       .  S
C974        C975   1.413       .  A
C975        C976   1.403       .  A
C975        S980   1.806       .  S
C976        C977   1.406       .  A
C976        H981   1.084       .  S
C977        C978   1.414       .  A
C978        S982   1.803       .  S
C979        C984   1.407       .  A
C979        C988   1.399       .  A
S980        H996   1.404       .  S
S982        H993   1.407       .  S
C984        C985   1.404       .  A
C984        S989   1.805       .  S
C985        C986   1.408       .  A
C985        H990   1.082       .  S
C986        C987   1.416       .  A
C987        C988   1.395       .  A
C987        S991   1.803       .  S
C988        H992   1.084       .  S
S989        H994   1.407       .  S
S991        H995   1.401       .  S
C997        C998   1.402       .  A
C997       C1002   1.400       .  A
C997       H1007   1.084       .  S
C998       C1003   1.481       .  S
C998        C999   1.413       .  A
C999       C1000   1.402       .  A
C999       S1004   1.805       .  S
C1000      C1001   1.406       .  A
C1000      H1005   1.084       .  S
C1001      C1002   1.415       .  A
C1002      S1006   1.803       .  S
C1003      C1008   1.409       .  A
C1003      C1012   1.402       .  A
S1004      H1020   1.403       .  S
S1006      H1017   1.407       .  S
C1008      C1009   1.406       .  A
C1008      S1013   1.806       .  S
C1009      C1010   1.405       .  A
C1009      H1014   1.083       .  S
C1010      C1011   1.414       .  A
C1011      C1012   1.401       .  A
C1011      S1015   1.804       .  S
C1012      H1016   1.084       .  S
S1013      H1018   1.407       .  S
S1015      H1019   1.407       .  S
C1021      C1022   1.401   1_545  A
C1021      C1026   1.397       .  A
C1021      H1031   1.084   1_545  S
C1022      C1027   1.474       .  S
C1022      C1023   1.411   1_565  A
C1023      C1024   1.399       .  A
C1023      S1028   1.805   1_545  S
C1024      C1025   1.404       .  A
C1024      H1029   1.084       .  S
C1025      C1026   1.414       .  A
C1026      S1030   1.806       .  S
C1027      C1032   1.407       .  A
C1027      C1036   1.401       .  A
S1028      H1044   1.404       .  S
S1030      H1041   1.407       .  S
C1032      C1033   1.399       .  A
C1032      S1037   1.807   1_565  S
C1033      C1034   1.405       .  A
C1033      H1038   1.083       .  S
C1034      C1035   1.414       .  A
C1035      C1036   1.400       .  A
C1035      S1039   1.803       .  S
C1036      H1040   1.084       .  S
S1037      H1042   1.407   1_545  S
S1039      H1043   1.406       .  S
C1045      C1046   1.400       .  A
C1045      C1050   1.395       .  A
C1045      H1055   1.084       .  S
C1046      C1051   1.474       .  S
C1046      C1047   1.412       .  A
C1047      C1048   1.401       .  A
C1047      S1052   1.806       .  S
C1048      C1049   1.405       .  A
C1048      H1053   1.084       .  S
C1049      C1050   1.414       .  A
C1050      S1054   1.804       .  S
C1051      C1056   1.407       .  A
C1051      C1060   1.401       .  A
S1052      H1068   1.404       .  S
S1054      H1065   1.407       .  S
C1056      C1057   1.402       .  A
C1056      S1061   1.806       .  S
C1057      C1058   1.406       .  A
C1057      H1062   1.083       .  S
C1058      C1059   1.413       .  A
C1059      C1060   1.397       .  A
C1059      S1063   1.804       .  S
C1060      H1064   1.084       .  S
S1061      H1066   1.407       .  S
S1063      H1067   1.407       .  S
C1069      C1070   1.401       .  A
C1069      C1074   1.400       .  A
C1069      H1079   1.084       .  S
C1070      C1075   1.476       .  S
C1070      C1071   1.414       .  A
C1071      C1072   1.398       .  A
C1071      S1076   1.808       .  S
C1072      C1073   1.404       .  A
C1072      H1077   1.084       .  S
C1073      C1074   1.415       .  A
C1074      S1078   1.804       .  S
C1075      C1080   1.407       .  A
C1075      C1084   1.402       .  A
S1076      H1092   1.403       .  S
S1078      H1089   1.407       .  S
C1080      C1081   1.399       .  A
C1080      S1085   1.807       .  S
C1081      C1082   1.405       .  A
C1081      H1086   1.083       .  S
C1082      C1083   1.415       .  A
C1083      C1084   1.402       .  A
C1083      S1087   1.802       .  S
C1084      H1088   1.084       .  S
S1085      H1090   1.407       .  S
S1087      H1091   1.407       .  S
C1093      C1094   1.399       .  A
C1093      C1098   1.396       .  A
C1093      H1103   1.084       .  S
C1094      C1099   1.476       .  S
C1094      C1095   1.411       .  A
C1095      C1096   1.401       .  A
C1095      S1100   1.806       .  S
C1096      C1097   1.408       .  A
C1096      H1101   1.081       .  S
C1097      C1098   1.420       .  A
C1098      S1102   1.803       .  S
C1099      C1104   1.409       .  A
C1099      C1108   1.400       .  A
S1100      H1116   1.404       .  S
S1102      H1113   1.407       .  S
C1104      C1105   1.404       .  A
C1104      S1109   1.806       .  S
C1105      C1106   1.404       .  A
C1105      H1110   1.083       .  S
C1106      C1107   1.414       .  A
C1107      C1108   1.395       .  A
C1107      S1111   1.805       .  S
C1108      H1112   1.084       .  S
S1109      H1114   1.407       .  S
S1111      H1115   1.407       .  S
C1117      C1118   1.403       .  A
C1117      C1122   1.403       .  A
C1117      H1127   1.084       .  S
C1118      C1123   1.481       .  S
C1118      C1119   1.412   1_545  A
C1119      C1120   1.398       .  A
C1119      S1124   1.804       .  S
C1120      C1121   1.404       .  A
C1120      H1125   1.084       .  S
C1121      C1122   1.416   1_565  A
C1122      S1126   1.803       .  S
C1123      C1128   1.408   1_545  A
C1123      C1132   1.403       .  A
S1124      H1140   1.404       .  S
S1126      H1137   1.408   1_545  S
C1128      C1129   1.402       .  A
C1128      S1133   1.807       .  S
C1129      C1130   1.407   1_565  A
C1129      H1134   1.082       .  S
C1130      C1131   1.414       .  A
C1131      C1132   1.403       .  A
C1131      S1135   1.797       .  S
C1132      H1136   1.084       .  S
S1133      H1138   1.407       .  S
S1135      H1139   1.407       .  S
C1141      C1142   1.400       .  A
C1141      C1146   1.398       .  A
C1141      H1151   1.084       .  S
C1142      C1147   1.475       .  S
C1142      C1143   1.411       .  A
C1143      C1144   1.398       .  A
C1143      S1148   1.804       .  S
C1144      C1145   1.406       .  A
C1144      H1149   1.084       .  S
C1145      C1146   1.414       .  A
C1146      S1150   1.800       .  S
C1147      C1152   1.409       .  A
C1147      C1156   1.398       .  A
S1148      H1164   1.405       .  S
S1150      H1161   1.406       .  S
C1152      C1153   1.406       .  A
C1152      S1157   1.806       .  S
C1153      C1154   1.406       .  A
C1153      H1158   1.083       .  S
C1154      C1155   1.416       .  A
C1155      C1156   1.395       .  A
C1155      S1159   1.803       .  S
C1156      H1160   1.084       .  S
S1157      H1162   1.407       .  S
S1159      H1163   1.407       .  S
C1165      C1166   1.401       .  A
C1165      C1170   1.400       .  A
C1165      H1175   1.084       .  S
C1166      C1171   1.482       .  S
C1166      C1167   1.412       .  A
C1167      C1168   1.402       .  A
C1167      S1172   1.803       .  S
C1168      C1169   1.403       .  A
C1168      H1173   1.084       .  S
C1169      C1170   1.417       .  A
C1170      S1174   1.805       .  S
C1171      C1176   1.409       .  A
C1171      C1180   1.401       .  A
S1172      H1188   1.406       .  S
S1174      H1185   1.406       .  S
C1176      C1177   1.406       .  A
C1176      S1181   1.806       .  S
C1177      C1178   1.406       .  A
C1177      H1182   1.083       .  S
C1178      C1179   1.416       .  A
C1179      C1180   1.399       .  A
C1179      S1183   1.805       .  S
C1180      H1184   1.084       .  S
S1181      H1186   1.406       .  S
S1183      H1187   1.407       .  S
C1189      C1190   1.402       .  A
C1189      C1194   1.400   1_655  A
C1189      H1199   1.084       .  S
C1190      C1195   1.476       .  S
C1190      C1191   1.412       .  A
C1191      C1192   1.397   1_655  A
C1191      S1196   1.805       .  S
C1192      C1193   1.404       .  A
C1192      H1197   1.084       .  S
C1193      C1194   1.414       .  A
C1194      S1198   1.803       .  S
C1195      C1200   1.407       .  A
C1195      C1204   1.402       .  A
S1196      H1212   1.403       .  S
S1198      H1209   1.405       .  S
C1200      C1201   1.400       .  A
C1200      S1205   1.807       .  S
C1201      C1202   1.404       .  A
C1201      H1206   1.083       .  S
C1202      C1203   1.414       .  A
C1203      C1204   1.401       .  A
C1203      S1207   1.803       .  S
C1204      H1208   1.084       .  S
S1205      H1210   1.406       .  S
S1207      H1211   1.408       .  S
C1213      C1214   1.401       .  A
C1213      C1218   1.398       .  A
C1213      H1223   1.084       .  S
C1214      C1219   1.478       .  S
C1214      C1215   1.412       .  A
C1215      C1216   1.400       .  A
C1215      S1220   1.805       .  S
C1216      C1217   1.405       .  A
C1216      H1221   1.084       .  S
C1217      C1218   1.416       .  A
C1218      S1222   1.803       .  S
C1219      C1224   1.408       .  A
C1219      C1228   1.400       .  A
S1220      H1236   1.405       .  S
S1222      H1233   1.407   1_655  S
C1224      C1225   1.402       .  A
C1224      S1229   1.806       .  S
C1225      C1226   1.406       .  A
C1225      H1230   1.081       .  S
C1226      C1227   1.418       .  A
C1227      C1228   1.398       .  A
C1227      S1231   1.804       .  S
C1228      H1232   1.084       .  S
S1229      H1234   1.407       .  S
S1231      H1235   1.407       .  S
C1237      C1238   1.404       .  A
C1237      C1242   1.404       .  A
C1237      H1247   1.084       .  S
C1238      C1243   1.484       .  S
C1238      C1239   1.413       .  A
C1239      C1240   1.396       .  A
C1239      S1244   1.808       .  S
C1240      C1241   1.406       .  A
C1240      H1245   1.084       .  S
C1241      C1242   1.416       .  A
C1242      S1246   1.799       .  S
C1243      C1248   1.410       .  A
C1243      C1252   1.403       .  A
S1244      H1260   1.404       .  S
S1246      H1257   1.408       .  S
C1248      C1249   1.400       .  A
C1248      S1253   1.806       .  S
C1249      C1250   1.406       .  A
C1249      H1254   1.083       .  S
C1250      C1251   1.417       .  A
C1251      C1252   1.403       .  A
C1251      S1255   1.803       .  S
C1252      H1256   1.084       .  S
S1253      H1258   1.407       .  S
S1255      H1259   1.408       .  S
C1261      C1262   1.400   1_455  A
C1261      C1266   1.396       .  A
C1261      H1271   1.084   1_455  S
C1262      C1267   1.478       .  S
C1262      C1263   1.413       .  A
C1263      C1264   1.402   1_655  A
C1263      S1268   1.804       .  S
C1264      C1265   1.404       .  A
C1264      H1269   1.084       .  S
C1265      C1266   1.413       .  A
C1266      S1270   1.804       .  S
C1267      C1272   1.408       .  A
C1267      C1276   1.402   1_655  A
S1268      H1284   1.406       .  S
S1270      H1281   1.407       .  S
C1272      C1273   1.401       .  A
C1272      S1277   1.806       .  S
C1273      C1274   1.404       .  A
C1273      H1278   1.083   1_545  S
C1274      C1275   1.413       .  A
C1275      C1276   1.403   1_655  A
C1275      S1279   1.807   1_655  S
C1276      H1280   1.083       .  S
S1277      H1282   1.407   1_545  S
S1279      H1283   1.407       .  S
C1285      C1286   1.400       .  A
C1285      C1290   1.398       .  A
C1285      H1295   1.084       .  S
C1286      C1291   1.480       .  S
C1286      C1287   1.413       .  A
C1287      C1288   1.401       .  A
C1287      S1292   1.803       .  S
C1288      C1289   1.404       .  A
C1288      H1293   1.084       .  S
C1289      C1290   1.417       .  A
C1290      S1294   1.802       .  S
C1291      C1296   1.410       .  A
C1291      C1300   1.398       .  A
S1292      H1308   1.406       .  S
S1294      H1305   1.407       .  S
C1296      C1297   1.407       .  A
C1296      S1301   1.805       .  S
C1297      C1298   1.406       .  A
C1297      H1302   1.083       .  S
C1298      C1299   1.418       .  A
C1299      C1300   1.396       .  A
C1299      S1303   1.803       .  S
C1300      H1304   1.084       .  S
S1301      H1306   1.407       .  S
S1303      H1307   1.407       .  S
C1309      C1310   1.401       .  A
C1309      C1314   1.396       .  A
C1309      H1319   1.084       .  S
C1310      C1315   1.478       .  S
C1310      C1311   1.412       .  A
C1311      C1312   1.402       .  A
C1311      S1316   1.804   1_565  S
C1312      C1313   1.405       .  A
C1312      H1317   1.084       .  S
C1313      C1314   1.413       .  A
C1314      S1318   1.804       .  S
C1315      C1320   1.406       .  A
C1315      C1324   1.402       .  A
S1316      H1332   1.405       .  S
S1318      H1329   1.407       .  S
C1320      C1321   1.398       .  A
C1320      S1325   1.807       .  S
C1321      C1322   1.406       .  A
C1321      H1326   1.083       .  S
C1322      C1323   1.419       .  A
C1323      C1324   1.403       .  A
C1323      S1327   1.804   1_554  S
C1324      H1328   1.084       .  S
S1325      H1330   1.407       .  S
S1327      H1331   1.406       .  S
C1333      C1334   1.401       .  A
C1333      C1338   1.402       .  A
C1333      H1343   1.084       .  S
C1334      C1339   1.479       .  S
C1334      C1335   1.409       .  A
C1335      C1336   1.396       .  A
C1335      S1340   1.805       .  S
C1336      C1337   1.407       .  A
C1336      H1341   1.082       .  S
C1337      C1338   1.422       .  A
C1338      S1342   1.803       .  S
C1339      C1344   1.409       .  A
C1339      C1348   1.402       .  A
S1340      H1356   1.406       .  S
S1342      H1353   1.408       .  S
C1344      C1345   1.404       .  A
C1344      S1349   1.806       .  S
C1345      C1346   1.404       .  A
C1345      H1350   1.083       .  S
C1346      C1347   1.413       .  A
C1347      C1348   1.398       .  A
C1347      S1351   1.804       .  S
C1348      H1352   1.084       .  S
S1349      H1354   1.407       .  S
S1351      H1355   1.407       .  S
C1357      C1358   1.401       .  A
C1357      C1362   1.396       .  A
C1357      H1367   1.084       .  S
C1358      C1363   1.479       .  S
C1358      C1359   1.412       .  A
C1359      C1360   1.403   1_545  A
C1359      S1364   1.802   1_545  S
C1360      C1361   1.404       .  A
C1360      H1365   1.084       .  S
C1361      C1362   1.412   1_565  A
C1362      S1366   1.803       .  S
C1363      C1368   1.407       .  A
C1363      C1372   1.401       .  A
S1364      H1380   1.406       .  S
S1366      H1377   1.407   1_556  S
C1368      C1369   1.399       .  A
C1368      S1373   1.807       .  S
C1369      C1370   1.408       .  A
C1369      H1374   1.082       .  S
C1370      C1371   1.421       .  A
C1371      C1372   1.402       .  A
C1371      S1375   1.803       .  S
C1372      H1376   1.084       .  S
S1373      H1378   1.407       .  S
S1375      H1379   1.408       .  S
C1381      C1382   1.400       .  A
C1381      C1386   1.396       .  A
C1381      H1391   1.084   1_554  S
C1382      C1387   1.476       .  S
C1382      C1383   1.412       .  A
C1383      C1384   1.403       .  A
C1383      S1388   1.805       .  S
C1384      C1385   1.406       .  A
C1384      H1389   1.084       .  S
C1385      C1386   1.414       .  A
C1386      S1390   1.803   1_554  S
C1387      C1392   1.408       .  A
C1387      C1396   1.401       .  A
S1388      H1404   1.403       .  S
S1390      H1401   1.407       .  S
C1392      C1393   1.400       .  A
C1392      S1397   1.806   1_565  S
C1393      C1394   1.404       .  A
C1393      H1398   1.083       .  S
C1394      C1395   1.416       .  A
C1395      C1396   1.399       .  A
C1395      S1399   1.806       .  S
C1396      H1400   1.084       .  S
S1397      H1402   1.406       .  S
S1399      H1403   1.405   1_455  S
C1405      C1406   1.403       .  A
C1405      C1410   1.403       .  A
C1405      H1415   1.084       .  S
C1406      C1411   1.492       .  S
C1406      C1407   1.415       .  A
C1407      C1408   1.408       .  A
C1407      S1412   1.805       .  S
C1408      C1409   1.407       .  A
C1408      H1413   1.084       .  S
C1409      C1410   1.416       .  A
C1410      S1414   1.801       .  S
C1411      C1416   1.410       .  A
C1411      C1420   1.403       .  A
S1412      H1428   1.403       .  S
S1414      H1425   1.407       .  S
C1416      C1417   1.408       .  A
C1416      S1421   1.807       .  S
C1417      C1418   1.407       .  A
C1417      H1422   1.080       .  S
C1418      C1419   1.419       .  A
C1419      C1420   1.407       .  A
C1419      S1423   1.803       .  S
C1420      H1424   1.084       .  S
S1421      H1426   1.407       .  S
S1423      H1427   1.407       .  S
C1429      C1430   1.403       .  A
C1429      C1434   1.401       .  A
C1429      H1439   1.084       .  S
C1430      C1435   1.480       .  S
C1430      C1431   1.410       .  A
C1431      C1432   1.399       .  A
C1431      S1436   1.803       .  S
C1432      C1433   1.406       .  A
C1432      H1437   1.084       .  S
C1433      C1434   1.417       .  A
C1434      S1438   1.804       .  S
C1435      C1440   1.408       .  A
C1435      C1444   1.402       .  A
S1436      H1452   1.406       .  S
S1438      H1449   1.407       .  S
C1440      C1441   1.404       .  A
C1440      S1445   1.805       .  S
C1441      C1442   1.405       .  A
C1441      H1446   1.083       .  S
C1442      C1443   1.413       .  A
C1443      C1444   1.400       .  A
C1443      S1447   1.803       .  S
C1444      H1448   1.084       .  S
S1445      H1450   1.407       .  S
S1447      H1451   1.406       .  S
C1453      C1454   1.400       .  A
C1453      C1458   1.404       .  A
C1453      H1463   1.083       .  S
C1454      C1459   1.477       .  S
C1454      C1455   1.410       .  A
C1455      C1456   1.397       .  A
C1455      S1460   1.806       .  S
C1456      C1457   1.407       .  A
C1456      H1461   1.084       .  S
C1457      C1458   1.417       .  A
C1458      S1462   1.808       .  S
C1459      C1464   1.408       .  A
C1459      C1468   1.400       .  A
S1460      H1476   1.406       .  S
S1462      H1473   1.406       .  S
C1464      C1465   1.400       .  A
C1464      S1469   1.807       .  S
C1465      C1466   1.402       .  A
C1465      H1470   1.079       .  S
C1466      C1467   1.417       .  A
C1467      C1468   1.399       .  A
C1467      S1471   1.803       .  S
C1468      H1472   1.084       .  S
S1469      H1474   1.407       .  S
S1471      H1475   1.406   1_455  S
C1477      C1478   1.402       .  A
C1477      C1482   1.400       .  A
C1477      H1487   1.084       .  S
C1478      C1483   1.481       .  S
C1478      C1479   1.413       .  A
C1479      C1480   1.402       .  A
C1479      S1484   1.805       .  S
C1480      C1481   1.404       .  A
C1480      H1485   1.084       .  S
C1481      C1482   1.415       .  A
C1482      S1486   1.804       .  S
C1483      C1488   1.409       .  A
C1483      C1492   1.400       .  A
S1484      H1500   1.404       .  S
S1486      H1497   1.406       .  S
C1488      C1489   1.406       .  A
C1488      S1493   1.805       .  S
C1489      C1490   1.407       .  A
C1489      H1494   1.083       .  S
C1490      C1491   1.418       .  A
C1491      C1492   1.399       .  A
C1491      S1495   1.804       .  S
C1492      H1496   1.084       .  S
S1493      H1498   1.406       .  S
S1495      H1499   1.407       .  S
C1501      C1502   1.404       .  A
C1501      C1506   1.401       .  A
C1501      H1511   1.084       .  S
C1502      C1507   1.484       .  S
C1502      C1503   1.413       .  A
C1503      C1504   1.400       .  A
C1503      S1508   1.803       .  S
C1504      C1505   1.404       .  A
C1504      H1509   1.084       .  S
C1505      C1506   1.415       .  A
C1506      S1510   1.806       .  S
C1507      C1512   1.410       .  A
C1507      C1516   1.399       .  A
S1508      H1524   1.405       .  S
S1510      H1521   1.407       .  S
C1512      C1513   1.409       .  A
C1512      S1517   1.805       .  S
C1513      C1514   1.407       .  A
C1513      H1518   1.082       .  S
C1514      C1515   1.419       .  A
C1515      C1516   1.399       .  A
C1515      S1519   1.804       .  S
C1516      H1520   1.084       .  S
S1517      H1522   1.407       .  S
S1519      H1523   1.407       .  S
C1525      C1526   1.402       .  A
C1525      C1530   1.400       .  A
C1525      H1535   1.083       .  S
C1526      C1531   1.481       .  S
C1526      C1527   1.413   1_655  A
C1527      C1528   1.401       .  A
C1527      S1532   1.808       .  S
C1528      C1529   1.409       .  A
C1528      H1533   1.084       .  S
C1529      C1530   1.415   1_455  A
C1530      S1534   1.806       .  S
C1531      C1536   1.410       .  A
C1531      C1540   1.401       .  A
S1532      H1548   1.403   1_455  S
S1534      H1545   1.407       .  S
C1536      C1537   1.406       .  A
C1536      S1541   1.806       .  S
C1537      C1538   1.406       .  A
C1537      H1542   1.083       .  S
C1538      C1539   1.415       .  A
C1539      C1540   1.396       .  A
C1539      S1543   1.804       .  S
C1540      H1544   1.084       .  S
S1541      H1546   1.406       .  S
S1543      H1547   1.407       .  S
C1549      C1550   1.401       .  A
C1549      C1554   1.397       .  A
C1549      H1559   1.084       .  S
C1550      C1555   1.472       .  S
C1550      C1551   1.409       .  A
C1551      C1552   1.395       .  A
C1551      S1556   1.804       .  S
C1552      C1553   1.401       .  A
C1552      H1557   1.081       .  S
C1553      C1554   1.413       .  A
C1554      S1558   1.807       .  S
C1555      C1560   1.408       .  A
C1555      C1564   1.399       .  A
S1556      H1572   1.406       .  S
S1558      H1569   1.401       .  S
C1560      C1561   1.401       .  A
C1560      S1565   1.806       .  S
C1561      C1562   1.403       .  A
C1561      H1566   1.083       .  S
C1562      C1563   1.415       .  A
C1563      C1564   1.399       .  A
C1563      S1567   1.809       .  S
C1564      H1568   1.083       .  S
S1565      H1570   1.407       .  S
S1567      H1571   1.407       .  S
C1573      C1574   1.399       .  A
C1573      C1578   1.396       .  A
C1573      H1583   1.084       .  S
C1574      C1579   1.474       .  S
C1574      C1575   1.413       .  A
C1575      C1576   1.401       .  A
C1575      S1580   1.807       .  S
C1576      C1577   1.404       .  A
C1576      H1581   1.084       .  S
C1577      C1578   1.418       .  A
C1578      S1582   1.805       .  S
C1579      C1584   1.408       .  A
C1579      C1588   1.398       .  A
S1580      H1596   1.403       .  S
S1582      H1593   1.407       .  S
C1584      C1585   1.405       .  A
C1584      S1589   1.805       .  S
C1585      C1586   1.405       .  A
C1585      H1590   1.083       .  S
C1586      C1587   1.416       .  A
C1587      C1588   1.394       .  A
C1587      S1591   1.804       .  S
C1588      H1592   1.084       .  S
S1589      H1594   1.407       .  S
S1591      H1595   1.406       .  S
C1597      C1598   1.403   1_545  A
C1597      C1602   1.398       .  A
C1597      H1607   1.084   1_545  S
C1598      C1603   1.478       .  S
C1598      C1599   1.412   1_565  A
C1599      C1600   1.399       .  A
C1599      S1604   1.803       .  S
C1600      C1601   1.402       .  A
C1600      H1605   1.084       .  S
C1601      C1602   1.412       .  A
C1602      S1606   1.805       .  S
C1603      C1608   1.409       .  A
C1603      C1612   1.400       .  A
S1604      H1620   1.406   1_545  S
S1606      H1617   1.406       .  S
C1608      C1609   1.404       .  A
C1608      S1613   1.806       .  S
C1609      C1610   1.405       .  A
C1609      H1614   1.083       .  S
C1610      C1611   1.417       .  A
C1611      C1612   1.397       .  A
C1611      S1615   1.805       .  S
C1612      H1616   1.084       .  S
S1613      H1618   1.407       .  S
S1615      H1619   1.407       .  S
C1621      C1622   1.402       .  A
C1621      C1626   1.402   1_655  A
C1621      H1631   1.084       .  S
C1622      C1627   1.480       .  S
C1622      C1623   1.410   1_655  A
C1623      C1624   1.398       .  A
C1623      S1628   1.805       .  S
C1624      C1625   1.407       .  A
C1624      H1629   1.084       .  S
C1625      C1626   1.415       .  A
C1626      S1630   1.801       .  S
C1627      C1632   1.409       .  A
C1627      C1636   1.402   1_655  A
S1628      H1644   1.406       .  S
S1630      H1641   1.407       .  S
C1632      C1633   1.403       .  A
C1632      S1637   1.805       .  S
C1633      C1634   1.403       .  A
C1633      H1638   1.083       .  S
C1634      C1635   1.414       .  A
C1635      C1636   1.399   1_655  A
C1635      S1639   1.804   1_655  S
C1636      H1640   1.084       .  S
S1637      H1642   1.407       .  S
S1639      H1643   1.406   1_455  S
C1645      C1646   1.401       .  A
C1645      C1650   1.400       .  A
C1645      H1655   1.084       .  S
C1646      C1651   1.474       .  S
C1646      C1647   1.411       .  A
C1647      C1648   1.396       .  A
C1647      S1652   1.805       .  S
C1648      C1649   1.403       .  A
C1648      H1653   1.084       .  S
C1649      C1650   1.415       .  A
C1650      S1654   1.800       .  S
C1651      C1656   1.407       .  A
C1651      C1660   1.402       .  A
S1652      H1668   1.405       .  S
S1654      H1665   1.408       .  S
C1656      C1657   1.397       .  A
C1656      S1661   1.807       .  S
C1657      C1658   1.403       .  A
C1657      H1662   1.083       .  S
C1658      C1659   1.414       .  A
C1659      C1660   1.404       .  A
C1659      S1663   1.805       .  S
C1660      H1664   1.083       .  S
S1661      H1666   1.407       .  S
S1663      H1667   1.407       .  S
C1669      C1670   1.401       .  A
C1669      C1674   1.400       .  A
C1669      H1679   1.084       .  S
C1670      C1675   1.479       .  S
C1670      C1671   1.410       .  A
C1671      C1672   1.401       .  A
C1671      S1676   1.802       .  S
C1672      C1673   1.405       .  A
C1672      H1677   1.084       .  S
C1673      C1674   1.418       .  A
C1674      S1678   1.803       .  S
C1675      C1680   1.409       .  A
C1675      C1684   1.402       .  A
S1676      H1692   1.405       .  S
S1678      H1689   1.407       .  S
C1680      C1681   1.402       .  A
C1680      S1685   1.805       .  S
C1681      C1682   1.404       .  A
C1681      H1686   1.083       .  S
C1682      C1683   1.414       .  A
C1683      C1684   1.399       .  A
C1683      S1687   1.806       .  S
C1684      H1688   1.084       .  S
S1685      H1690   1.407       .  S
S1687      H1691   1.407       .  S
C1693      C1694   1.398       .  A
C1693      C1698   1.397       .  A
C1693      H1703   1.084       .  S
C1694      C1699   1.477       .  S
C1694      C1695   1.411       .  A
C1695      C1696   1.398       .  A
C1695      S1700   1.803       .  S
C1696      C1697   1.406       .  A
C1696      H1701   1.083       .  S
C1697      C1698   1.417       .  A
C1698      S1702   1.795       .  S
C1699      C1704   1.410       .  A
C1699      C1708   1.398       .  A
S1700      H1716   1.406       .  S
S1702      H1713   1.408       .  S
C1704      C1705   1.406       .  A
C1704      S1709   1.805       .  S
C1705      C1706   1.406       .  A
C1705      H1710   1.083       .  S
C1706      C1707   1.415       .  A
C1707      C1708   1.392       .  A
C1707      S1711   1.804       .  S
C1708      H1712   1.084       .  S
S1709      H1714   1.407       .  S
S1711      H1715   1.408       .  S
C1717      C1718   1.401       .  A
C1717      C1722   1.401       .  A
C1717      H1727   1.084       .  S
C1718      C1723   1.480       .  S
C1718      C1719   1.411       .  A
C1719      C1720   1.400       .  A
C1719      S1724   1.804       .  S
C1720      C1721   1.405       .  A
C1720      H1725   1.084       .  S
C1721      C1722   1.417       .  A
C1722      S1726   1.802       .  S
C1723      C1728   1.409       .  A
C1723      C1732   1.399       .  A
S1724      H1740   1.406       .  S
S1726      H1737   1.406       .  S
C1728      C1729   1.405       .  A
C1728      S1733   1.805       .  S
C1729      C1730   1.406       .  A
C1729      H1734   1.083       .  S
C1730      C1731   1.418       .  A
C1731      C1732   1.397       .  A
C1731      S1735   1.805       .  S
C1732      H1736   1.084       .  S
S1733      H1738   1.407       .  S
S1735      H1739   1.407       .  S
C1741      C1742   1.399       .  A
C1741      C1746   1.395       .  A
C1741      H1751   1.084       .  S
C1742      C1747   1.472       .  S
C1742      C1743   1.411       .  A
C1743      C1744   1.399       .  A
C1743      S1748   1.802   1_545  S
C1744      C1745   1.404       .  A
C1744      H1749   1.084       .  S
C1745      C1746   1.415       .  A
C1746      S1750   1.804       .  S
C1747      C1752   1.406   1_545  A
C1747      C1756   1.401       .  A
S1748      H1764   1.404       .  S
S1750      H1761   1.407       .  S
C1752      C1753   1.400   1_455  A
C1752      S1757   1.806   1_455  S
C1753      C1754   1.405   1_655  A
C1753      H1758   1.083       .  S
C1754      C1755   1.415   1_565  A
C1755      C1756   1.398       .  A
C1755      S1759   1.805       .  S
C1756      H1760   1.084       .  S
S1757      H1762   1.406       .  S
S1759      H1763   1.406       .  S
C1765      C1766   1.400       .  A
C1765      C1770   1.400       .  A
C1765      H1775   1.084       .  S
C1766      C1771   1.474       .  S
C1766      C1767   1.409       .  A
C1767      C1768   1.396       .  A
C1767      S1772   1.807       .  S
C1768      C1769   1.409       .  A
C1768      H1773   1.084       .  S
C1769      C1770   1.419       .  A
C1770      S1774   1.800       .  S
C1771      C1776   1.408       .  A
C1771      C1780   1.400       .  A
S1772      H1788   1.404       .  S
S1774      H1785   1.408       .  S
C1776      C1777   1.401       .  A
C1776      S1781   1.806       .  S
C1777      C1778   1.403       .  A
C1777      H1782   1.083       .  S
C1778      C1779   1.413       .  A
C1779      C1780   1.399       .  A
C1779      S1783   1.801       .  S
C1780      H1784   1.084       .  S
S1781      H1786   1.407       .  S
S1783      H1787   1.405       .  S
C1789      C1790   1.399   1_545  A
C1789      C1794   1.399       .  A
C1789      H1799   1.084   1_545  S
C1790      C1795   1.474       .  S
C1790      C1791   1.409   1_565  A
C1791      C1792   1.396       .  A
C1791      S1796   1.803   1_545  S
C1792      C1793   1.406       .  A
C1792      H1797   1.083       .  S
C1793      C1794   1.417       .  A
C1794      S1798   1.798       .  S
C1795      C1800   1.407       .  A
C1795      C1804   1.400       .  A
S1796      H1812   1.406       .  S
S1798      H1809   1.408       .  S
C1800      C1801   1.398       .  A
C1800      S1805   1.807       .  S
C1801      C1802   1.406       .  A
C1801      H1806   1.083       .  S
C1802      C1803   1.415       .  A
C1803      C1804   1.399       .  A
C1803      S1807   1.801       .  S
C1804      H1808   1.084       .  S
S1805      H1810   1.407       .  S
S1807      H1811   1.407       .  S
C1813      C1814   1.403       .  A
C1813      C1818   1.402       .  A
C1813      H1823   1.084       .  S
C1814      C1819   1.476       .  S
C1814      C1815   1.409       .  A
C1815      C1816   1.396       .  A
C1815      S1820   1.806       .  S
C1816      C1817   1.406       .  A
C1816      H1821   1.084       .  S
C1817      C1818   1.416       .  A
C1818      S1822   1.802       .  S
C1819      C1824   1.407       .  A
C1819      C1828   1.400       .  A
S1820      H1836   1.405       .  S
S1822      H1833   1.407       .  S
C1824      C1825   1.404       .  A
C1824      S1829   1.805       .  S
C1825      C1826   1.407       .  A
C1825      H1830   1.083       .  S
C1826      C1827   1.417       .  A
C1827      C1828   1.396       .  A
C1827      S1831   1.803       .  S
C1828      H1832   1.084       .  S
S1829      H1834   1.405       .  S
S1831      H1835   1.406       .  S
C1837      C1838   1.402       .  A
C1837      C1842   1.402       .  A
C1837      H1847   1.084       .  S
C1838      C1843   1.484       .  S
C1838      C1839   1.413       .  A
C1839      C1840   1.398       .  A
C1839      S1844   1.805       .  S
C1840      C1841   1.406       .  A
C1840      H1845   1.084       .  S
C1841      C1842   1.420       .  A
C1842      S1846   1.803       .  S
C1843      C1848   1.409       .  A
C1843      C1852   1.401   1_655  A
S1844      H1860   1.405       .  S
S1846      H1857   1.407       .  S
C1848      C1849   1.403       .  A
C1848      S1853   1.807       .  S
C1849      C1850   1.407       .  A
C1849      H1854   1.083       .  S
C1850      C1851   1.417   1_655  A
C1851      C1852   1.402       .  A
C1851      S1855   1.802       .  S
C1852      H1856   1.084       .  S
S1853      H1858   1.407       .  S
S1855      H1859   1.407       .  S
C1861      C1862   1.401       .  A
C1861      C1866   1.396       .  A
C1861      H1871   1.084       .  S
C1862      C1867   1.473       .  S
C1862      C1863   1.412       .  A
C1863      C1864   1.399       .  A
C1863      S1868   1.805       .  S
C1864      C1865   1.403       .  A
C1864      H1869   1.084       .  S
C1865      C1866   1.412       .  A
C1866      S1870   1.803       .  S
C1867      C1872   1.408       .  A
C1867      C1876   1.400       .  A
S1868      H1884   1.405       .  S
S1870      H1881   1.407       .  S
C1872      C1873   1.403       .  A
C1872      S1877   1.806       .  S
C1873      C1874   1.406       .  A
C1873      H1878   1.083       .  S
C1874      C1875   1.414       .  A
C1875      C1876   1.396       .  A
C1875      S1879   1.804       .  S
C1876      H1880   1.084       .  S
S1877      H1882   1.407       .  S
S1879      H1883   1.407       .  S
C1885      C1886   1.403       .  A
C1885      C1890   1.401       .  A
C1885      H1895   1.083       .  S
C1886      C1891   1.480       .  S
C1886      C1887   1.413       .  A
C1887      C1888   1.401       .  A
C1887      S1892   1.805       .  S
C1888      C1889   1.404       .  A
C1888      H1893   1.084       .  S
C1889      C1890   1.411       .  A
C1890      S1894   1.809       .  S
C1891      C1896   1.411       .  A
C1891      C1900   1.402       .  A
S1892      H1908   1.405       .  S
S1894      H1905   1.407       .  S
C1896      C1897   1.403       .  A
C1896      S1901   1.807   1_554  S
C1897      C1898   1.403       .  A
C1897      H1902   1.083       .  S
C1898      C1899   1.412       .  A
C1899      C1900   1.398       .  A
C1899      S1903   1.803       .  S
C1900      H1904   1.084       .  S
S1901      H1906   1.407       .  S
S1903      H1907   1.407       .  S
C1909      C1910   1.403       .  A
C1909      C1914   1.406       .  A
C1909      H1919   1.084       .  S
C1910      C1915   1.486       .  S
C1910      C1911   1.410       .  A
C1911      C1912   1.399       .  A
C1911      S1916   1.806       .  S
C1912      C1913   1.410       .  A
C1912      H1917   1.083       .  S
C1913      C1914   1.419       .  A
C1914      S1918   1.799       .  S
C1915      C1920   1.411       .  A
C1915      C1924   1.403       .  A
S1916      H1932   1.405       .  S
S1918      H1929   1.408       .  S
C1920      C1921   1.405       .  A
C1920      S1925   1.806       .  S
C1921      C1922   1.404       .  A
C1921      H1926   1.083       .  S
C1922      C1923   1.414       .  A
C1923      C1924   1.403       .  A
C1923      S1927   1.801       .  S
C1924      H1928   1.084       .  S
S1925      H1930   1.407       .  S
S1927      H1931   1.407       .  S
C1933      C1934   1.399       .  A
C1933      C1938   1.394       .  A
C1933      H1943   1.084       .  S
C1934      C1939   1.476       .  S
C1934      C1935   1.412       .  A
C1935      C1936   1.401       .  A
C1935      S1940   1.803       .  S
C1936      C1937   1.404       .  A
C1936      H1941   1.084       .  S
C1937      C1938   1.415       .  A
C1938      S1942   1.802       .  S
C1939      C1944   1.409       .  A
C1939      C1948   1.400       .  A
S1940      H1956   1.405       .  S
S1942      H1953   1.407       .  S
C1944      C1945   1.403       .  A
C1944      S1949   1.807       .  S
C1945      C1946   1.403       .  A
C1945      H1950   1.083       .  S
C1946      C1947   1.413       .  A
C1947      C1948   1.399       .  A
C1947      S1951   1.802       .  S
C1948      H1952   1.084       .  S
S1949      H1954   1.407       .  S
S1951      H1955   1.407       .  S
C1957      C1958   1.403       .  A
C1957      C1962   1.398       .  A
C1957      H1967   1.084       .  S
C1958      C1963   1.476       .  S
C1958      C1959   1.413       .  A
C1959      C1960   1.397       .  A
C1959      S1964   1.804       .  S
C1960      C1961   1.400       .  A
C1960      H1965   1.083       .  S
C1961      C1962   1.409       .  A
C1962      S1966   1.805       .  S
C1963      C1968   1.407       .  A
C1963      C1972   1.398       .  A
S1964      H1980   1.405       .  S
S1966      H1977   1.406       .  S
C1968      C1969   1.405       .  A
C1968      S1973   1.806       .  S
C1969      C1970   1.407       .  A
C1969      H1974   1.083       .  S
C1970      C1971   1.420       .  A
C1971      C1972   1.396       .  A
C1971      S1975   1.804       .  S
C1972      H1976   1.084       .  S
S1973      H1978   1.406       .  S
S1975      H1979   1.407       .  S
C1981      C1982   1.402   1_655  A
C1981      C1986   1.402       .  A
C1981      H1991   1.084       .  S
C1982      C1987   1.477       .  S
C1982      C1983   1.410       .  A
C1983      C1984   1.396       .  A
C1983      S1988   1.808       .  S
C1984      C1985   1.407   1_455  A
C1984      H1989   1.083       .  S
C1985      C1986   1.417       .  A
C1986      S1990   1.802       .  S
C1987      C1992   1.408       .  A
C1987      C1996   1.400       .  A
S1988      H2004   1.405       .  S
S1990      H2001   1.408       .  S
C1992      C1993   1.403       .  A
C1992      S1997   1.805       .  S
C1993      C1994   1.407       .  A
C1993      H1998   1.083       .  S
C1994      C1995   1.416       .  A
C1995      C1996   1.396       .  A
C1995      S1999   1.806       .  S
C1996      H2000   1.084       .  S
S1997      H2002   1.406       .  S
S1999      H2003   1.407       .  S
C2005      C2006   1.401       .  A
C2005      C2010   1.398       .  A
C2005      H2015   1.084       .  S
C2006      C2011   1.476       .  S
C2006      C2007   1.412       .  A
C2007      C2008   1.401       .  A
C2007      S2012   1.808       .  S
C2008      C2009   1.405       .  A
C2008      H2013   1.084       .  S
C2009      C2010   1.416       .  A
C2010      S2014   1.805       .  S
C2011      C2016   1.408       .  A
C2011      C2020   1.399       .  A
S2012      H2028   1.403       .  S
S2014      H2025   1.406       .  S
C2016      C2017   1.403       .  A
C2016      S2021   1.806       .  S
C2017      C2018   1.404       .  A
C2017      H2022   1.083       .  S
C2018      C2019   1.417       .  A
C2019      C2020   1.397       .  A
C2019      S2023   1.804   1_655  S
C2020      H2024   1.084       .  S
S2021      H2026   1.406       .  S
S2023      H2027   1.407       .  S
C2029      C2030   1.401       .  A
C2029      C2034   1.395       .  A
C2029      H2039   1.084       .  S
C2030      C2035   1.478       .  S
C2030      C2031   1.414       .  A
C2031      C2032   1.401       .  A
C2031      S2036   1.805       .  S
C2032      C2033   1.403       .  A
C2032      H2037   1.084       .  S
C2033      C2034   1.411       .  A
C2034      S2038   1.801       .  S
C2035      C2040   1.410       .  A
C2035      C2044   1.403       .  A
S2036      H2052   1.406       .  S
S2038      H2049   1.406       .  S
C2040      C2041   1.400       .  A
C2040      S2045   1.807       .  S
C2041      C2042   1.403       .  A
C2041      H2046   1.083       .  S
C2042      C2043   1.414       .  A
C2043      C2044   1.398       .  A
C2043      S2047   1.804       .  S
C2044      H2048   1.084       .  S
S2045      H2050   1.407   1_655  S
S2047      H2051   1.407       .  S
C2053      C2054   1.400       .  A
C2053      C2058   1.396       .  A
C2053      H2063   1.084       .  S
C2054      C2059   1.484       .  S
C2054      C2055   1.414       .  A
C2055      C2056   1.405       .  A
C2055      S2060   1.803       .  S
C2056      C2057   1.406       .  A
C2056      H2061   1.084       .  S
C2057      C2058   1.415       .  A
C2058      S2062   1.799       .  S
C2059      C2064   1.411       .  A
C2059      C2068   1.403       .  A
S2060      H2076   1.406       .  S
S2062      H2073   1.407       .  S
C2064      C2065   1.404       .  A
C2064      S2069   1.805       .  S
C2065      C2066   1.403       .  A
C2065      H2070   1.083       .  S
C2066      C2067   1.413       .  A
C2067      C2068   1.399       .  A
C2067      S2071   1.804       .  S
C2068      H2072   1.084       .  S
S2069      H2074   1.407       .  S
S2071      H2075   1.405       .  S
C2077      C2078   1.400       .  A
C2077      C2082   1.398       .  A
C2077      H2087   1.084       .  S
C2078      C2083   1.477       .  S
C2078      C2079   1.411       .  A
C2079      C2080   1.400       .  A
C2079      S2084   1.803       .  S
C2080      C2081   1.405       .  A
C2080      H2085   1.084       .  S
C2081      C2082   1.416       .  A
C2082      S2086   1.804       .  S
C2083      C2088   1.409       .  A
C2083      C2092   1.400       .  A
S2084      H2100   1.406       .  S
S2086      H2097   1.406       .  S
C2088      C2089   1.404       .  A
C2088      S2093   1.806       .  S
C2089      C2090   1.405       .  A
C2089      H2094   1.083       .  S
C2090      C2091   1.414       .  A
C2091      C2092   1.398       .  A
C2091      S2095   1.802       .  S
C2092      H2096   1.084       .  S
S2093      H2098   1.407       .  S
S2095      H2099   1.406       .  S
C2101      C2102   1.403       .  A
C2101      C2106   1.398       .  A
C2101      H2111   1.084       .  S
C2102      C2107   1.486       .  S
C2102      C2103   1.416       .  A
C2103      C2104   1.403       .  A
C2103      S2108   1.805       .  S
C2104      C2105   1.403       .  A
C2104      H2109   1.084       .  S
C2105      C2106   1.411       .  A
C2106      S2110   1.802       .  S
C2107      C2112   1.412       .  A
C2107      C2116   1.403       .  A
S2108      H2124   1.405       .  S
S2110      H2121   1.407       .  S
C2112      C2113   1.405       .  A
C2112      S2117   1.807       .  S
C2113      C2114   1.406       .  A
C2113      H2118   1.082       .  S
C2114      C2115   1.415       .  A
C2115      C2116   1.400       .  A
C2115      S2119   1.804       .  S
C2116      H2120   1.084       .  S
S2117      H2122   1.407       .  S
S2119      H2123   1.407       .  S
C2125      C2126   1.401       .  A
C2125      C2130   1.394       .  A
C2125      H2135   1.084       .  S
C2126      C2131   1.479       .  S
C2126      C2127   1.413       .  A
C2127      C2128   1.401       .  A
C2127      S2132   1.803       .  S
C2128      C2129   1.404       .  A
C2128      H2133   1.084       .  S
C2129      C2130   1.412       .  A
C2130      S2134   1.805       .  S
C2131      C2136   1.408       .  A
C2131      C2140   1.399       .  A
S2132      H2148   1.406       .  S
S2134      H2145   1.406       .  S
C2136      C2137   1.400       .  A
C2136      S2141   1.809       .  S
C2137      C2138   1.409       .  A
C2137      H2142   1.082       .  S
C2138      C2139   1.422       .  A
C2139      C2140   1.399       .  A
C2139      S2143   1.800       .  S
C2140      H2144   1.084       .  S
S2141      H2146   1.406       .  S
S2143      H2147   1.402       .  S
C2149      C2150   1.401   1_545  A
C2149      C2154   1.400       .  A
C2149      H2159   1.084   1_545  S
C2150      C2155   1.479       .  S
C2150      C2151   1.411   1_565  A
C2151      C2152   1.398       .  A
C2151      S2156   1.805   1_545  S
C2152      C2153   1.405       .  A
C2152      H2157   1.084       .  S
C2153      C2154   1.419       .  A
C2154      S2158   1.804       .  S
C2155      C2160   1.409       .  A
C2155      C2164   1.400       .  A
S2156      H2172   1.406       .  S
S2158      H2169   1.407       .  S
C2160      C2161   1.406       .  A
C2160      S2165   1.806       .  S
C2161      C2162   1.407       .  A
C2161      H2166   1.083       .  S
C2162      C2163   1.417       .  A
C2163      C2164   1.396       .  A
C2163      S2167   1.805       .  S
C2164      H2168   1.084       .  S
S2165      H2170   1.407       .  S
S2167      H2171   1.407       .  S
C2173      C2174   1.403   1_455  A
C2173      C2178   1.397       .  A
C2173      H2183   1.084       .  S
C2174      C2179   1.476       .  S
C2174      C2175   1.413       .  A
C2175      C2176   1.397   1_655  A
C2175      S2180   1.805       .  S
C2176      C2177   1.400       .  A
C2176      H2181   1.083       .  S
C2177      C2178   1.410       .  A
C2178      S2182   1.803       .  S
C2179      C2184   1.409       .  A
C2179      C2188   1.402       .  A
S2180      H2196   1.405       .  S
S2182      H2193   1.405       .  S
C2184      C2185   1.400       .  A
C2184      S2189   1.809       .  S
C2185      C2186   1.405       .  A
C2185      H2190   1.082       .  S
C2186      C2187   1.413       .  A
C2187      C2188   1.399       .  A
C2187      S2191   1.802       .  S
C2188      H2192   1.084       .  S
S2189      H2194   1.406       .  S
S2191      H2195   1.407       .  S
C2197      C2198   1.400       .  A
C2197      C2202   1.398       .  A
C2197      H2207   1.084       .  S
C2198      C2203   1.482       .  S
C2198      C2199   1.415       .  A
C2199      C2200   1.405       .  A
C2199      S2204   1.805   1_545  S
C2200      C2201   1.404       .  A
C2200      H2205   1.084       .  S
C2201      C2202   1.415       .  A
C2202      S2206   1.805       .  S
C2203      C2208   1.409   1_545  A
C2203      C2212   1.400       .  A
S2204      H2220   1.403       .  S
S2206      H2217   1.407       .  S
C2208      C2209   1.406       .  A
C2208      S2213   1.806       .  S
C2209      C2210   1.408       .  A
C2209      H2214   1.083       .  S
C2210      C2211   1.417       .  A
C2211      C2212   1.400   1_565  A
C2211      S2215   1.803   1_565  S
C2212      H2216   1.084       .  S
S2213      H2218   1.407       .  S
S2215      H2219   1.407   1_545  S
C2221      C2222   1.402       .  A
C2221      C2226   1.402       .  A
C2221      H2231   1.084       .  S
C2222      C2227   1.477       .  S
C2222      C2223   1.410       .  A
C2223      C2224   1.396       .  A
C2223      S2228   1.806       .  S
C2224      C2225   1.406       .  A
C2224      H2229   1.084       .  S
C2225      C2226   1.416       .  A
C2226      S2230   1.802       .  S
C2227      C2232   1.409       .  A
C2227      C2236   1.402       .  A
S2228      H2244   1.405       .  S
S2230      H2241   1.407   1_565  S
C2232      C2233   1.400       .  A
C2232      S2237   1.807       .  S
C2233      C2234   1.404       .  A
C2233      H2238   1.083       .  S
C2234      C2235   1.414       .  A
C2235      C2236   1.400       .  A
C2235      S2239   1.804       .  S
C2236      H2240   1.084       .  S
S2237      H2242   1.407       .  S
S2239      H2243   1.407       .  S
C2245      C2246   1.401       .  A
C2245      C2250   1.403       .  A
C2245      H2255   1.084       .  S
C2246      C2251   1.480       .  S
C2246      C2247   1.410       .  A
C2247      C2248   1.398       .  A
C2247      S2252   1.807       .  S
C2248      C2249   1.408       .  A
C2248      H2253   1.084       .  S
C2249      C2250   1.417       .  A
C2250      S2254   1.796       .  S
C2251      C2256   1.409       .  A
C2251      C2260   1.402       .  A
S2252      H2268   1.404       .  S
S2254      H2265   1.407       .  S
C2256      C2257   1.402       .  A
C2256      S2261   1.806       .  S
C2257      C2258   1.404       .  A
C2257      H2262   1.083       .  S
C2258      C2259   1.415       .  A
C2259      C2260   1.401       .  A
C2259      S2263   1.805       .  S
C2260      H2264   1.084       .  S
S2261      H2266   1.407       .  S
S2263      H2267   1.407       .  S
