geometry optimzed in LAMMPS
_audit_creation_date              2020-11-30 
_audit_creation_method            'lammps2cif' 
_symmetry_space_group_name_H-M    'P1' 
_symmetry_Int_Tables_number       1 
_symmetry_cell_setting            triclinic 
loop_ 
_symmetry_equiv_pos_as_xyz 
  x,y,z 
_cell_length_a                    47.01859272 
_cell_length_b                    28.061745824283918 
_cell_length_c                    35.56831900152729 
_cell_angle_alpha                 92.44568353496122 
_cell_angle_beta                  90.89442526616925 
_cell_angle_gamma                 90.53570881963722 
loop_ 
_atom_site_label 
_atom_site_type_symbol 
_atom_site_fract_x 
_atom_site_fract_y 
_atom_site_fract_z 
_atom_site_charge 
N1          N  0.32369955  0.29724044  0.48255996    -0.01800
C2          C  0.34602926  0.31328895  0.46261702     0.00800
C3          C  0.33615837  0.33791225  0.93203086    -0.22100
C4          C  0.30726036  0.33952862  0.93428089    -0.22300
C5          C  0.30043823  0.31537363  0.96575054     0.00700
H6          H  0.34871820  0.35722986  0.91233944     0.14500
H7          H  0.29297899  0.35878707  0.91639536     0.14500
N8          N  0.32372132  0.29622050  0.26710663    -0.01800
C9          C  0.34896789  0.31625124  0.27934396     0.00800
C10         C  0.34399736  0.35402736  0.30461854    -0.22100
C11         C  0.31520009  0.35827459  0.30767100    -0.22300
C12         C  0.30335169  0.32317488  0.28394428     0.00700
H13         H  0.35966345  0.37891747  0.31665501     0.14500
H14         H  0.30413673  0.38619717  0.32322986     0.14500
O15         O  0.24850436  0.17157509  0.04018822    -0.76800
C16         C  0.31392327  0.11883811  0.09799931     0.84300
O17         O  0.33360032  0.21770898  0.47015504    -0.77900
O18         O  0.35550406  0.04559458  0.99898478    -0.79400
O19         O  0.24950874  0.04572704  0.47546425    -0.79200
O20         O  0.23126837  0.15560899  0.48240071    -0.77800
Zn21       Zn  0.29118747  0.17227817  0.03334887     1.55700
O22         O  0.28242171  0.01361655  0.01306771    -0.79200
Cd23       Cd  0.26470647  0.11274895  0.46374368     1.59700
Cd24       Cd  0.32911584  0.14560660  0.46284830     1.59600
O25         O  0.27296536  0.11756678  0.40560136    -0.79200
O26         O  0.29965879  0.12356212  0.49590148    -1.89700
Cd27       Cd  0.31447403  0.06538151  0.02019141     1.59900
O28         O  0.32005360  0.12800186  0.40602200    -0.79200
O29         O  0.31663404  0.08025825  0.07806964    -0.77800
C30         C  0.32164956  0.24844341  0.49186395     0.84700
C31         C  0.22747509  0.16627344  0.51716604     0.84400
O32         O  0.30788185  0.15831767  0.08368225    -0.76800
C33         C  0.25806278  0.01240550  0.49606149     0.85200
O34         O  0.30475979  0.23639309  0.01738872    -0.76900
C35         C  0.29651795  0.12081306  0.38820379     0.85300
C36         C  0.37321250  0.07382185  0.48401177     0.85700
O37         O  0.36664478  0.11618393  0.47639181    -0.79300
O38         O  0.23673975  0.16004364  0.24950200    -0.76800
C39         C  0.29671212  0.11700376  0.34636036     0.84300
O40         O  0.33680178  0.22280127  0.23791220    -0.77900
O41         O  0.35678233  0.04585444  0.25110903    -0.79400
O42         O  0.25711178  0.03150672  0.21600103    -0.79200
O43         O  0.24510038  0.13530016  0.19041639    -0.77800
Zn44       Zn  0.27771285  0.16109603  0.27213939     1.55700
O45         O  0.28238901  0.01204094  0.26661526    -0.79200
Cd46       Cd  0.27810425  0.09140934  0.20112936     1.59700
Cd47       Cd  0.33145042  0.15286790  0.21731220     1.59600
O48         O  0.30162482  0.08176720  0.15328117    -0.79200
O49         O  0.30105248  0.11877021  0.24314574    -1.89700
Cd50       Cd  0.31517698  0.06510754  0.27252667     1.59900
O51         O  0.32311772  0.15253221  0.15945204    -0.79200
O52         O  0.31465386  0.08939906  0.32972029    -0.77800
C53         C  0.31864403  0.24656950  0.25694861     0.84700
C54         C  0.22817226  0.15055027  0.21559630     0.84400
O55         O  0.27931139  0.14233370  0.32781445    -0.76800
C56         C  0.26093079  0.00568463  0.24398424     0.85200
O57         O  0.29606707  0.22676367  0.26907284    -0.76900
C58         C  0.31395197  0.11702744  0.13898560     0.85300
C59         C  0.37376071  0.07135872  0.23188750     0.85700
O60         O  0.36714389  0.11308522  0.22209499    -0.79300
N61         N  0.17470166  0.18272098  0.01531187    -0.01800
C62         C  0.15249438  0.16498494  0.03477351     0.00800
C63         C  0.16289254  0.14063432  0.06527442    -0.22100
C64         C  0.19187374  0.14091009  0.06348247    -0.22300
C65         C  0.19846382  0.16557550  0.03216772     0.00700
H66         H  0.15058910  0.11990962  0.08436984     0.14500
H67         H  0.20640327  0.12201723  0.08131032     0.14500
N68         N  0.17713870  0.17676749  0.22325106    -0.01800
C69         C  0.15192416  0.15825470  0.20933458     0.00800
C70         C  0.15698981  0.12291549  0.18199679    -0.22100
C71         C  0.18580405  0.11837641  0.17938955    -0.22300
C72         C  0.19759180  0.15095763  0.20536702     0.00700
H73         H  0.14133440  0.09932204  0.16829358     0.14500
H74         H  0.19685819  0.09166726  0.16253554     0.14500
O75         O  0.19141427  0.31548405  0.41191526    -0.76800
C76         C  0.27116118  0.31500790  0.48037289     0.84300
O77         O  0.16311567  0.26285032  0.02524939    -0.77900
O78         O  0.22403730  0.36276390  0.08939126    -0.79400
O79         O  0.21591874  0.46797239  0.48105869    -0.79200
O80         O  0.19188488  0.39480236  0.41380938    -0.77800
Zn81       Zn  0.20778811  0.30574404  0.46328686     1.55700
O82         O  0.24769915  0.43761429  0.02113765    -0.79200
Cd83       Cd  0.18717638  0.41213117  0.47029572     1.59700
Cd84       Cd  0.16779910  0.33665379  0.03202895     1.59600
O85         O  0.14325830  0.42537458  0.47481179    -0.79200
O86         O  0.19873220  0.35618217  0.49941771    -1.89700
Cd87       Cd  0.23310390  0.36971539  0.03207621     1.59900
O88         O  0.13114536  0.36730035  0.01295805    -0.79200
O89         O  0.26736537  0.32858534  0.01456801    -0.77800
C90         C  0.17611064  0.23145206  0.50522925     0.84700
C91         C  0.19064525  0.35480238  0.39556159     0.84400
O92         O  0.25047072  0.30686087  0.45734559    -0.76800
C93         C  0.23937112  0.47055946  0.49980009     0.85200
O94         O  0.19408599  0.24294620  0.48069083    -0.76900
C95         C  0.12451374  0.39966563  0.49024959     0.85300
C96         C  0.20049345  0.35931789  0.10673730     0.85700
O97         O  0.17673235  0.35371339  0.08904295    -0.79300
O98         O  0.21869622  0.33453788  0.16542571    -0.76800
C99         C  0.27269043  0.32193531  0.27468758     0.84300
O100        O  0.16470415  0.24888368  0.25553674    -0.77900
O101        O  0.20172244  0.39011830  0.33934423    -0.79400
O102        O  0.21731518  0.46283288  0.22916965    -0.79200
O103        O  0.18327410  0.38762222  0.16649127    -0.77800
Zn104      Zn  0.22216720  0.31297273  0.21996200     1.55700
O105        O  0.24480450  0.43983199  0.27657912    -0.79200
Cd106      Cd  0.18441555  0.40951058  0.22405752     1.59700
Cd107      Cd  0.17057530  0.31854152  0.27783482     1.59600
O108        O  0.14346597  0.42712469  0.24846696    -0.79200
O109        O  0.19946363  0.35409914  0.25052269    -1.89700
Cd110      Cd  0.22381445  0.38016866  0.29118826     1.59900
O111        O  0.13475364  0.35900307  0.27719477    -0.79200
O112        O  0.25597114  0.33478407  0.30076793    -0.77800
C113        C  0.18228642  0.22611963  0.23472198     0.84700
C114        C  0.20085728  0.36078738  0.14845087     0.84400
O115        O  0.26369065  0.31409985  0.24076840    -0.76800
C116        C  0.23980038  0.46757130  0.25017376     0.85200
O117        O  0.20436679  0.24678946  0.22200415    -0.76900
C118        C  0.12745953  0.40089690  0.26848368     0.85300
C119        C  0.19072861  0.35443941  0.35459202     0.85700
O120        O  0.18172498  0.31805686  0.33496110    -0.79300
N121        N  0.42432181  0.04580517  0.49045690    -0.01800
C122        C  0.40122039  0.05861247  0.46934608     0.00800
C123        C  0.40987520  0.07963349  0.43675569    -0.22100
C124        C  0.43856295  0.08419250  0.43890588    -0.22300
C125        C  0.44664532  0.06482968  0.47220626     0.00700
H126        H  0.39636754  0.09583778  0.41598876     0.14500
H127        H  0.45202696  0.10184587  0.41922659     0.14500
N128        N  0.42420954  0.03922314  0.23625245    -0.01800
C129        C  0.40120449  0.05374634  0.21594050     0.00800
C130        C  0.41034758  0.07403271  0.18321882    -0.22100
C131        C  0.43931573  0.07651767  0.18499287    -0.22300
C132        C  0.44718487  0.05694946  0.21830851     0.00700
H133        H  0.39719343  0.09140541  0.16272599     0.14500
H134        H  0.45302839  0.09390680  0.16548287     0.14500
O135        O  0.46220186  0.39933181  0.08427688    -0.76800
C136        C  0.01944417  0.40600352  0.48091554     0.84300
O137        O  0.41045487  0.46652405  0.48589915    -0.74700
O138        O  0.45370562  0.33104111  0.40974584    -0.79400
O139        O  0.46544911  0.25877252  0.01616892    -0.79200
O140        O  0.43382367  0.33418404  0.08202286    -0.77800
Zn141      Zn  0.46780700  0.41779356  0.02950961     1.55700
O142        O  0.49619982  0.28953506  0.47654294    -0.79200
Cd143      Cd  0.43294195  0.31290917  0.02389214     1.59700
Cd144      Cd  0.42083074  0.40032869  0.46664638     1.59600
O145        O  0.38975743  0.29834267  0.00075945    -0.79200
O146        O  0.44798955  0.36963320  0.49892662    -1.89700
Cd147      Cd  0.47367546  0.34619920  0.46011879     1.59900
O148        O  0.38579182  0.36141044  0.46485307    -0.79200
O149        O  0.00247828  0.39844850  0.45331773    -0.77800
C150        C  0.42773009  0.49703656  0.50068703     0.84700
C151        C  0.44789314  0.36721246  0.10059228     0.84400
O152        O  0.01026449  0.41387612  0.01427362    -0.76800
C153        C  0.48919009  0.25736578  0.49856353     0.85200
O154        O  0.45061529  0.48390419  0.01774379    -0.76900
C155        C  0.37541648  0.32374759  0.47751079     0.85300
C156        C  0.44302575  0.36559719  0.39282489     0.85700
O157        O  0.43352271  0.40186534  0.41111774    -0.79300
O158        O  0.44495195  0.40443108  0.33595135    -0.76800
C159        C  0.02426867  0.41274348  0.26949911     0.84300
O160        O  0.41305109  0.45837015  0.22580758    -0.77900
O161        O  0.47256573  0.36821647  0.15947737    -0.79400
O162        O  0.46899046  0.25759851  0.26400619    -0.79200
O163        O  0.44499819  0.32506086  0.33361122    -0.77800
Zn164      Zn  0.46075641  0.41688858  0.28573042     1.55700
O165        O  0.49859938  0.29093581  0.22357683    -0.79200
Cd166      Cd  0.43995716  0.30985065  0.27662235     1.59700
Cd167      Cd  0.41713856  0.38466617  0.21781344     1.59600
O168        O  0.39666607  0.29105071  0.27133326    -0.79200
O169        O  0.45025062  0.36751927  0.24897339    -1.89700
Cd170      Cd  0.48397761  0.35903388  0.21609311     1.59900
O171        O  0.38083612  0.35191362  0.23855209    -0.79200
O172        O  0.01944953  0.39982540  0.23513339    -0.77800
C173        C  0.42684007  0.49025235  0.24571552     0.84700
C174        C  0.44379785  0.36491162  0.35195912     0.84400
O175        O  0.00393166  0.41829254  0.29255531    -0.76800
C176        C  0.49138753  0.25686291  0.24417516     0.85200
O177        O  0.44602883  0.47942416  0.26948090    -0.76900
C178        C  0.37639705  0.31678146  0.25956921     0.85300
C179        C  0.44838960  0.36801613  0.14233946     0.85700
O180        O  0.42492804  0.36902782  0.16022357    -0.79300
N181        N  0.07230564  0.42292600  0.48416194    -0.01800
C182        C  0.09536970  0.39621430  0.47470834     0.00800
C183        C  0.08660774  0.35249217  0.45881461    -0.22100
C184        C  0.05761544  0.35189368  0.45839795    -0.22300
C185        C  0.04947309  0.39498949  0.47445381     0.00700
H186        H  0.10003478  0.32272264  0.45084686     0.14500
H187        H  0.04396393  0.32240409  0.44874697     0.14500
N188        N  0.07704089  0.43323278  0.26646817    -0.01800
C189        C  0.10019077  0.41745144  0.28574435     0.00800
C190        C  0.09115703  0.39492886  0.31759644    -0.22100
C191        C  0.06210647  0.39321840  0.31639058    -0.22300
C192        C  0.05402144  0.41537348  0.28424970     0.00700
H193        H  0.10438269  0.37573685  0.33699304     0.14500
H194        H  0.04850260  0.37429283  0.33513739     0.14500
O195        O  0.49505011  0.06059510  0.45900203    -0.76800
C196        C  0.05797525  0.11518681  0.39386529     0.84300
O197        O  0.08637276  0.99823987  0.01076612    -0.77900
O198        O  0.10771003  0.17829928  0.49969081    -0.79400
O199        O  0.50149122  0.18298159  0.02223293    -0.79200
O200        O  0.48334177  0.07452936  0.01853928    -0.77800
Zn201      Zn  0.03703369  0.05953614  0.45933617     1.55700
O202        O  0.03287299  0.21592230  0.48439747    -0.79200
Cd203      Cd  0.01824410  0.11765341  0.03096855     1.59700
Cd204      Cd  0.07971067  0.06948187  0.02744667     1.59600
O205        O  0.03064076  0.11628594  0.08604372    -0.79200
O206        O  0.05084805  0.10351173  0.49718535    -1.89700
Cd207      Cd  0.06569897  0.16339568  0.47455067     1.59900
O208        O  0.06931213  0.07079263  0.08373098    -0.79200
O209        O  0.06751014  0.15073831  0.41447975    -0.77800
C210        C  0.07022523  0.97393965  0.48784690     0.84700
C211        C  0.47647219  0.06494170  0.48435132     0.84400
O212        O  0.04694950  0.07883319  0.40816074    -0.76800
C213        C  0.00911529  0.21690317  0.50222238     0.85200
O214        O  0.05100524  0.99380209  0.46842765    -0.76900
C215        C  0.05064954  0.09427022  0.10198693     0.85300
C216        C  0.12391793  0.15077934  0.01865413     0.85700
O217        O  0.11587448  0.10911497  0.02702448    -0.79300
O218        O  0.49681909  0.05086322  0.20861966    -0.76800
C219        C  0.05216753  0.09706920  0.14272764     0.84300
O220        O  0.08981942  0.01439382  0.27217073    -0.77900
O221        O  0.10319544  0.17727663  0.21531086    -0.79400
O222        O  0.00329092  0.18289692  0.26809732    -0.79200
O223        O  0.48290922  0.07399017  0.26586062    -0.77800
Zn224      Zn  0.03994279  0.05183601  0.21283913     1.55700
O225        O  0.03188820  0.21350043  0.22538612    -0.79200
Cd226      Cd  0.01882011  0.11683654  0.27979999     1.59700
Cd227      Cd  0.08605933  0.08934847  0.27629803     1.59600
O228        O  0.03276724  0.11577949  0.33598033    -0.79200
O229        O  0.05159188  0.10425523  0.24620855    -1.89700
Cd230      Cd  0.05985197  0.15890751  0.21440452     1.59900
O231        O  0.08025951  0.10994940  0.33369849    -0.79200
O232        O  0.05101515  0.13799580  0.15934815    -0.77800
C233        C  0.07474963  0.98154365  0.25504110     0.84700
C234        C  0.47713178  0.05881807  0.23223829     0.84400
O235        O  0.05359986  0.05893431  0.16056547    -0.76800
C236        C  0.00988207  0.21550769  0.24586993     0.85200
O237        O  0.05478180  0.99123354  0.23208980    -0.76900
C238        C  0.05727777  0.11529441  0.35224796     0.85300
C239        C  0.12446170  0.15538851  0.22891775     0.85700
O240        O  0.12145886  0.12233357  0.25237955    -0.79300
N241        N  0.32387303  0.29712392  0.98254884    -0.01800
C242        C  0.34620083  0.31312570  0.96257741     0.00800
C243        C  0.33598721  0.33803775  0.43205028    -0.22100
C244        C  0.30708277  0.33954836  0.43424111    -0.22300
C245        C  0.30025977  0.31538832  0.46570633     0.00700
H246        H  0.34854559  0.35737897  0.41237127     0.14500
H247        H  0.29279381  0.35875247  0.41632381     0.14500
N248        N  0.32370476  0.29631988  0.76724222    -0.01800
C249        C  0.34893144  0.31643054  0.77947721     0.00800
C250        C  0.34391113  0.35427953  0.80466713    -0.22100
C251        C  0.31510673  0.35848614  0.80766092    -0.22300
C252        C  0.30330315  0.32328835  0.78398832     0.00700
H253        H  0.35954866  0.37924329  0.81667235     0.14500
H254        H  0.30400944  0.38643989  0.82313885     0.14500
O255        O  0.24838643  0.17164172  0.54025202    -0.76800
C256        C  0.31386996  0.11905712  0.59807130     0.84300
O257        O  0.33374673  0.21758011  0.97011471    -0.77900
O258        O  0.35537322  0.04576173  0.49904928    -0.79400
O259        O  0.24960006  0.04562244  0.97552268    -0.79200
O260        O  0.23137098  0.15552436  0.98235301    -0.77800
Zn261      Zn  0.29107305  0.17242192  0.53342425     1.55700
O262        O  0.28227557  0.01377590  0.51311999    -0.79200
Cd263      Cd  0.26478578  0.11261431  0.96373185     1.59700
Cd264      Cd  0.32918542  0.14549519  0.96274668     1.59600
O265        O  0.27297161  0.11743131  0.90559066    -0.79200
O266        O  0.29976536  0.12341370  0.99583510    -1.89700
Cd267      Cd  0.31434677  0.06553944  0.52026858     1.59900
O268        O  0.32004339  0.12805023  0.90595039    -0.79200
O269        O  0.31655535  0.08047277  0.57813886    -0.77800
C270        C  0.32179342  0.24831381  0.99182172     0.84700
C271        C  0.22758800  0.16623251  0.01710988     0.84400
O272        O  0.30780184  0.15852953  0.58376128    -0.76800
C273        C  0.25818177  0.01228573  0.99608465     0.85200
O274        O  0.30462948  0.23652926  0.51744878    -0.76900
C275        C  0.29650287  0.12079895  0.88816866     0.85300
C276        C  0.37330210  0.07359180  0.98380038     0.85700
O277        O  0.36669790  0.11588638  0.97603102    -0.79300
O278        O  0.23671344  0.16014985  0.74949955    -0.76800
C279        C  0.29667986  0.11703308  0.84634079     0.84300
O280        O  0.33682154  0.22290702  0.73806760    -0.77900
O281        O  0.35679032  0.04596810  0.75118630    -0.79400
O282        O  0.25716263  0.03152648  0.71600494    -0.79200
O283        O  0.24507389  0.13528488  0.69044171    -0.77800
Zn284      Zn  0.27768373  0.16117454  0.77216831     1.55700
O285        O  0.28240633  0.01212114  0.76666038    -0.79200
Cd286      Cd  0.27811796  0.09148302  0.70116801     1.59700
Cd287      Cd  0.33145882  0.15300255  0.71739886     1.59600
O288        O  0.30166526  0.08192735  0.65334970    -0.79200
O289        O  0.30104419  0.11887847  0.74318273    -1.89700
Cd290      Cd  0.31517595  0.06520955  0.77254216     1.59900
O291        O  0.32310893  0.15273529  0.65953360    -0.79200
O292        O  0.31465277  0.08950199  0.82969632    -0.77800
C293        C  0.31864919  0.24666113  0.75708830     0.84700
C294        C  0.22814749  0.15060270  0.71560037     0.84400
O295        O  0.27925003  0.14233050  0.82781465    -0.76800
C296        C  0.26096664  0.00572974  0.74400602     0.85200
O297        O  0.29606023  0.22684457  0.76917027    -0.76900
C298        C  0.31394792  0.11723132  0.63905807     0.85300
C299        C  0.37377366  0.07148693  0.73198807     0.85700
O300        O  0.36715141  0.11320831  0.72218828    -0.79300
N301        N  0.17457585  0.18268846  0.51539757    -0.01800
C302        C  0.15237693  0.16491850  0.53485625     0.00800
C303        C  0.16279097  0.14051388  0.56532130    -0.22100
C304        C  0.19177265  0.14080924  0.56351247    -0.22300
C305        C  0.19834898  0.16553740  0.53222317     0.00700
H306        H  0.15049812  0.11975097  0.58440261     0.14500
H307        H  0.20631254  0.12189944  0.58131538     0.14500
N308        N  0.17711204  0.17686553  0.72321881    -0.01800
C309        C  0.15190126  0.15842712  0.70922468     0.00800
C310        C  0.15697457  0.12312670  0.68185828    -0.22100
C311        C  0.18578819  0.11852904  0.67931293    -0.22300
C312        C  0.19756909  0.15104569  0.70534771     0.00700
H313        H  0.14131905  0.09958251  0.66809914     0.14500
H314        H  0.19684293  0.09182973  0.66244937     0.14500
O315        O  0.19159615  0.31559943  0.91195935    -0.76800
C316        C  0.27133835  0.31503218  0.98042733     0.84300
O317        O  0.16298990  0.26282803  0.52530338    -0.77900
O318        O  0.22393726  0.36286528  0.58933714    -0.79400
O319        O  0.21603276  0.46795552  0.98116894    -0.79200
O320        O  0.19193895  0.39491851  0.91387748    -0.77800
Zn321      Zn  0.20796026  0.30582479  0.96332118     1.55700
O322        O  0.24757846  0.43765473  0.52104073    -0.79200
Cd323      Cd  0.18727583  0.41217913  0.97039072     1.59700
Cd324      Cd  0.16767942  0.33665229  0.53202440     1.59600
O325        O  0.14336952  0.42549536  0.97497591    -0.79200
O326        O  0.19886774  0.35621016  0.99946512    -1.89700
Cd327      Cd  0.23296654  0.36976196  0.53200695     1.59900
O328        O  0.13103359  0.36730552  0.51291921    -0.79200
O329        O  0.26719066  0.32857717  0.51450926    -0.77800
C330        C  0.17625296  0.23149493  0.00517687     0.84700
C331        C  0.19075136  0.35492163  0.89561880     0.84400
O332        O  0.25064595  0.30693315  0.95739561    -0.76800
C333        C  0.23948951  0.47051768  0.99989699     0.85200
O334        O  0.19425291  0.24301261  0.98067642    -0.76900
C335        C  0.12462420  0.39972869  0.99035250     0.85300
C336        C  0.20040807  0.35940373  0.60671297     0.85700
O337        O  0.17663788  0.35376074  0.58904177    -0.79300
O338        O  0.21864933  0.33462665  0.66539144    -0.76800
C339        C  0.27265042  0.32195152  0.77469435     0.84300
O340        O  0.16471768  0.24895985  0.75558275    -0.77900
O341        O  0.20177300  0.39023886  0.83937313    -0.79400
O342        O  0.21732535  0.46290746  0.72921913    -0.79200
O343        O  0.18324728  0.38774510  0.66649775    -0.77800
Zn344      Zn  0.22214880  0.31305799  0.71993808     1.55700
O345        O  0.24486659  0.43980401  0.77654633    -0.79200
Cd346      Cd  0.18441094  0.40960221  0.72407903     1.59700
Cd347      Cd  0.17060271  0.31862471  0.77790907     1.59600
O348        O  0.14345428  0.42721042  0.74847338    -0.79200
O349        O  0.19945422  0.35417278  0.75053212    -1.89700
Cd350      Cd  0.22382719  0.38020192  0.79118925     1.59900
O351        O  0.13479855  0.35914860  0.77731166    -0.79200
O352        O  0.25590278  0.33467781  0.80077253    -0.77800
C353        C  0.18227461  0.22620791  0.73471532     0.84700
C354        C  0.20080564  0.36088791  0.64843349     0.84400
O355        O  0.26367763  0.31419248  0.74075320    -0.76800
C356        C  0.23983588  0.46759551  0.75018286     0.85200
O357        O  0.20434367  0.24688122  0.72197037    -0.76900
C358        C  0.12747091  0.40100530  0.76853844     0.85300
C359        C  0.19080413  0.35455790  0.85464591     0.85700
O360        O  0.18180323  0.31815917  0.83502990    -0.79300
N361        N  0.42441446  0.04565560  0.99034982    -0.01800
C362        C  0.40132513  0.05838283  0.96918496     0.00800
C363        C  0.40999905  0.07935095  0.93657981    -0.22100
C364        C  0.43868084  0.08399102  0.93878735    -0.22300
C365        C  0.44674423  0.06470610  0.97212657     0.00700
H366        H  0.39650175  0.09548558  0.91576515     0.14500
H367        H  0.45215159  0.10164297  0.91911486     0.14500
N368        N  0.42422447  0.03934809  0.73637305    -0.01800
C369        C  0.40122331  0.05388707  0.71605968     0.00800
C370        C  0.41036405  0.07414542  0.68332817    -0.22100
C371        C  0.43933104  0.07658832  0.68508371    -0.22300
C372        C  0.44720026  0.05703274  0.71840309     0.00700
H373        H  0.39721128  0.09151709  0.66283323     0.14500
H374        H  0.45304561  0.09394831  0.66555984     0.14500
O375        O  0.46205978  0.39943596  0.58427542    -0.76800
C376        C  0.01956110  0.40603920  0.98093090     0.84300
O377        O  0.41057658  0.46634298  0.98589318    -0.74700
O378        O  0.45387562  0.33092906  0.90972492    -0.79400
O379        O  0.46531250  0.25882437  0.51618630    -0.79200
O380        O  0.43367169  0.33430165  0.58204871    -0.77800
Zn381      Zn  0.46767648  0.41788310  0.52951240     1.55700
O382        O  0.49636270  0.28952824  0.97657675    -0.79200
Cd383      Cd  0.43279712  0.31300095  0.52390996     1.59700
Cd384      Cd  0.42098947  0.40018088  0.96662601     1.59600
O385        O  0.38960030  0.29848213  0.50077175    -0.79200
O386        O  0.44813877  0.36953193  0.99891885    -1.89700
Cd387      Cd  0.47382868  0.34613961  0.96010929     1.59900
O388        O  0.38597620  0.36121376  0.96478254    -0.79200
O389        O  0.00259855  0.39846664  0.95333147    -0.77800
C390        C  0.42785209  0.49688461  0.00064123     0.84700
C391        C  0.44774531  0.36733830  0.60060598     0.84400
O392        O  0.01015008  0.41386051  0.51425867    -0.76800
C393        C  0.48933780  0.25734697  0.99857818     0.85200
O394        O  0.45048824  0.48401782  0.51778378    -0.76900
C395        C  0.37559013  0.32357316  0.97746076     0.85300
C396        C  0.44318967  0.36549106  0.89281710     0.85700
O397        O  0.43370007  0.40175648  0.91112318    -0.79300
O398        O  0.44501190  0.40438206  0.83597406    -0.76800
C399        C  0.02424833  0.41291474  0.76944440     0.84300
O400        O  0.41303309  0.45853863  0.72592357    -0.77900
O401        O  0.47245439  0.36838436  0.65945953    -0.79400
O402        O  0.46894723  0.25769031  0.76381306    -0.79200
O403        O  0.44513270  0.32501269  0.83357146    -0.77800
Zn404      Zn  0.46075550  0.41697105  0.78575608     1.55700
O405        O  0.49861138  0.29117104  0.72352430    -0.79200
Cd406      Cd  0.43995571  0.30994117  0.77658276     1.59700
Cd407      Cd  0.41708892  0.38483984  0.71789040     1.59600
O408        O  0.39663828  0.29122551  0.77144766    -0.79200
O409        O  0.45022915  0.36765785  0.74897588    -1.89700
Cd410      Cd  0.48394213  0.35925494  0.71605543     1.59900
O411        O  0.38080462  0.35211608  0.73870303    -0.79200
O412        O  0.01940540  0.40013157  0.73505577    -0.77800
C413        C  0.42682851  0.49040123  0.74584271     0.84700
C414        C  0.44392370  0.36483789  0.85195294     0.84400
O415        O  0.00392417  0.41834796  0.79253343    -0.76800
C416        C  0.49137344  0.25702747  0.74403905     0.85200
O417        O  0.44601703  0.47954702  0.76960050    -0.76900
C418        C  0.37636824  0.31697870  0.75971564     0.85300
C419        C  0.44826395  0.36816852  0.64235619     0.85700
O420        O  0.42481674  0.36919741  0.66027587    -0.79300
N421        N  0.07241634  0.42298123  0.98425647    -0.01800
C422        C  0.09548749  0.39629945  0.97478485     0.00800
C423        C  0.08674020  0.35261331  0.95881123    -0.22100
C424        C  0.05774924  0.35200767  0.95835727    -0.22300
C425        C  0.04959325  0.39505893  0.97447425     0.00700
H426        H  0.10017626  0.32286831  0.95080771     0.14500
H427        H  0.04410292  0.32253345  0.94864084     0.14500
N428        N  0.07704668  0.43335399  0.76646078    -0.01800
C429        C  0.10017890  0.41753396  0.78575769     0.00800
C430        C  0.09111206  0.39496630  0.81757254    -0.22100
C431        C  0.06206349  0.39326553  0.81632040    -0.22300
C432        C  0.05400700  0.41547267  0.78419213     0.00700
H433        H  0.10431596  0.37574766  0.83697684     0.14500
H434        H  0.04844047  0.37432724  0.83503503     0.14500
O435        O  0.49516174  0.06054977  0.95899546    -0.76800
C436        C  0.05803001  0.11523691  0.89383390     0.84300
O437        O  0.08627445  0.99820335  0.51068472    -0.77900
O438        O  0.10782614  0.17832767  0.99960258    -0.79400
O439        O  0.50137240  0.18300004  0.52223573    -0.79200
O440        O  0.48327794  0.07451536  0.51857052    -0.77800
Zn441      Zn  0.03715838  0.05953707  0.95932783     1.55700
O442        O  0.03301238  0.21592727  0.98443007    -0.79200
Cd443      Cd  0.01814897  0.11768043  0.53095876     1.59700
Cd444      Cd  0.07958883  0.06941603  0.52743055     1.59600
O445        O  0.03056444  0.11633064  0.58601258    -0.79200
O446        O  0.05095225  0.10352358  0.99718997    -1.89700
Cd447      Cd  0.06580002  0.16339905  0.97453170     1.59900
O448        O  0.06915507  0.07064418  0.58370109    -0.79200
O449        O  0.06753728  0.15079923  0.91445642    -0.77800
C450        C  0.07033664  0.97396697  0.98791672     0.84700
C451        C  0.47656369  0.06489623  0.98431834     0.84400
O452        O  0.04705875  0.07883082  0.90812444    -0.76800
C453        C  0.00925690  0.21690009  0.00225212     0.85200
O454        O  0.05113527  0.99382269  0.96846184    -0.76900
C455        C  0.05053318  0.09422078  0.60195477     0.85300
C456        C  0.12379609  0.15073429  0.51873758     0.85700
O457        O  0.11575047  0.10906025  0.52708057    -0.79300
O458        O  0.49682444  0.05093452  0.70867875    -0.76800
C459        C  0.05206572  0.09706471  0.64269099     0.84300
O460        O  0.08987307  0.01451757  0.77208994    -0.77900
O461        O  0.10314260  0.17727192  0.71506348    -0.79400
O462        O  0.00329678  0.18308430  0.76799148    -0.79200
O463        O  0.48293829  0.07413995  0.76591563    -0.77800
Zn464      Zn  0.03993589  0.05194729  0.71284660     1.55700
O465        O  0.03187857  0.21366125  0.72525232    -0.79200
Cd466      Cd  0.01883457  0.11704774  0.77978071     1.59700
Cd467      Cd  0.08607378  0.08948168  0.77623008     1.59600
O468        O  0.03279798  0.11601001  0.83596370    -0.79200
O469        O  0.05158616  0.10439859  0.74617494    -1.89700
Cd470      Cd  0.05979393  0.15899151  0.71428406     1.59900
O471        O  0.08027956  0.10997753  0.83364889    -0.79200
O472        O  0.05085354  0.13800185  0.65927916    -0.77800
C473        C  0.07476895  0.98167091  0.75501155     0.84700
C474        C  0.47714910  0.05890981  0.73231195     0.84400
O475        O  0.05358707  0.05896784  0.66056243    -0.76800
C476        C  0.00987689  0.21567897  0.74574230     0.85200
O477        O  0.05477509  0.99137213  0.73210679    -0.76900
C478        C  0.05731141  0.11539796  0.85221595     0.85300
C479        C  0.12442617  0.15552396  0.72876976     0.85700
O480        O  0.12145022  0.12256592  0.75232243    -0.79300
N481        N  0.32369941  0.79724420  0.48255181    -0.01800
C482        C  0.34603002  0.81329057  0.46260845     0.00800
C483        C  0.33616193  0.83789530  0.93203492    -0.22100
C484        C  0.30726356  0.83950492  0.93428111    -0.22300
C485        C  0.30044182  0.81535804  0.96575494     0.00700
H486        H  0.34872156  0.85720914  0.91234106     0.14500
H487        H  0.29298147  0.85875386  0.91638992     0.14500
N488        N  0.32372455  0.79622558  0.26711371    -0.01800
C489        C  0.34896838  0.81627664  0.27934131     0.00800
C490        C  0.34399175  0.85407103  0.30459652    -0.22100
C491        C  0.31519395  0.85830688  0.30764805    -0.22300
C492        C  0.30335096  0.82318241  0.28394015     0.00700
H493        H  0.35965380  0.87897757  0.31662040     0.14500
H494        H  0.30412607  0.88623663  0.32319266     0.14500
O495        O  0.24851336  0.67156757  0.04021572    -0.76800
C496        C  0.31394019  0.61884181  0.09801135     0.84300
O497        O  0.33359119  0.71770993  0.47013949    -0.77900
O498        O  0.35551464  0.54559388  0.99899951    -0.79400
O499        O  0.24950380  0.54570357  0.47544359    -0.79200
O500        O  0.23125451  0.65558466  0.48238534    -0.77800
Zn501      Zn  0.29119775  0.67227885  0.03336734     1.55700
O502        O  0.28242633  0.51363054  0.01307946    -0.79200
Cd503      Cd  0.26469640  0.61273218  0.46372835     1.59700
Cd504      Cd  0.32910479  0.64560712  0.46283951     1.59600
O505        O  0.27295993  0.61755664  0.40558850    -0.79200
O506        O  0.29964654  0.62355708  0.49588865    -1.89700
Cd507      Cd  0.31448421  0.56538622  0.02020368     1.59900
O508        O  0.32004815  0.62799712  0.40601550    -0.79200
O509        O  0.31664684  0.58026159  0.07808115    -0.77800
C510        C  0.32164387  0.74844526  0.49185068     0.84700
C511        C  0.22746459  0.66626835  0.51714850     0.84400
O512        O  0.30790060  0.65832276  0.08369576    -0.76800
C513        C  0.25805917  0.51238431  0.49604243     0.85200
O514        O  0.30476600  0.73639189  0.01740320    -0.76900
C515        C  0.29651403  0.62080623  0.38819484     0.85300
C516        C  0.37320340  0.57383172  0.48400650     0.85700
O517        O  0.36663354  0.61619383  0.47639044    -0.79300
O518        O  0.23674430  0.66004239  0.24949556    -0.76800
C519        C  0.29671223  0.61699942  0.34635297     0.84300
O520        O  0.33681317  0.72280536  0.23792582    -0.77900
O521        O  0.35678684  0.54584848  0.25110404    -0.79400
O522        O  0.25712146  0.53150490  0.21599959    -0.79200
O523        O  0.24510319  0.63528644  0.19041255    -0.77800
Zn524      Zn  0.27771731  0.66109605  0.27213510     1.55700
O525        O  0.28239244  0.51204516  0.26662008    -0.79200
Cd526      Cd  0.27811342  0.59140796  0.20112985     1.59700
Cd527      Cd  0.33146281  0.65287089  0.21732355     1.59600
O528        O  0.30164194  0.58176771  0.15328996    -0.79200
O529        O  0.30105963  0.61877165  0.24314649    -1.89700
Cd530      Cd  0.31518281  0.56510692  0.27252486     1.59900
O531        O  0.32313261  0.65253527  0.15946396    -0.79200
O532        O  0.31465823  0.58940046  0.32971560    -0.77800
C533        C  0.31865185  0.74657252  0.25695699     0.84700
C534        C  0.22817549  0.65054226  0.21559138     0.84400
O535        O  0.27931114  0.64232704  0.32780602    -0.76800
C536        C  0.26093565  0.50568870  0.24398708     0.85200
O537        O  0.29607318  0.72676467  0.26907447    -0.76900
C538        C  0.31396897  0.61702961  0.13899668     0.85300
C539        C  0.37376863  0.57135453  0.23188880     0.85700
O540        O  0.36715678  0.61308734  0.22210589    -0.79300
N541        N  0.17470865  0.68270587  0.01532066    -0.01800
C542        C  0.15250026  0.66496832  0.03477923     0.00800
C543        C  0.16289698  0.64062259  0.06528354    -0.22100
C544        C  0.19187898  0.64091008  0.06350061    -0.22300
C545        C  0.19847120  0.66557409  0.03218571     0.00700
H546        H  0.15059283  0.61989885  0.08437883     0.14500
H547        H  0.20640820  0.62202624  0.08133509     0.14500
N548        N  0.17714125  0.67675725  0.22325487    -0.01800
C549        C  0.15192649  0.65825766  0.20932801     0.00800
C550        C  0.15699145  0.62293528  0.18197642    -0.22100
C551        C  0.18580573  0.61839229  0.17937080    -0.22300
C552        C  0.19759413  0.65095456  0.20536284     0.00700
H553        H  0.14133520  0.59935434  0.16826105     0.14500
H554        H  0.19685916  0.59169348  0.16250564     0.14500
O555        O  0.19140886  0.81551194  0.41192835    -0.76800
C556        C  0.27116241  0.81502853  0.48037378     0.84300
O557        O  0.16311460  0.76283155  0.02524144    -0.77900
O558        O  0.22403760  0.86274235  0.08938962    -0.79400
O559        O  0.21591964  0.96800061  0.48107750    -0.79200
O560        O  0.19189363  0.89483017  0.41381701    -0.77800
Zn561      Zn  0.20778758  0.80576789  0.46329530     1.55700
O562        O  0.24769768  0.93759507  0.02113041    -0.79200
Cd563      Cd  0.18717887  0.91215749  0.47030459     1.59700
Cd564      Cd  0.16780067  0.83663163  0.03202453     1.59600
O565        O  0.14325859  0.92539380  0.47481487    -0.79200
O566        O  0.19873363  0.85620606  0.49942540    -1.89700
Cd567      Cd  0.23310363  0.86969526  0.03207323     1.59900
O568        O  0.13114779  0.86728481  0.01295951    -0.79200
O569        O  0.26736658  0.82856842  0.01456880    -0.77800
C570        C  0.17610831  0.73147138  0.50523279     0.84700
C571        C  0.19064729  0.85482834  0.39557165     0.84400
O572        O  0.25047040  0.80688243  0.45734862    -0.76800
C573        C  0.23937269  0.97058355  0.49981796     0.85200
O574        O  0.19408389  0.74296737  0.48069516    -0.76900
C575        C  0.12451378  0.89968193  0.49024987     0.85300
C576        C  0.20049409  0.85928985  0.10673569     0.85700
O577        O  0.17673366  0.85368070  0.08904058    -0.79300
O578        O  0.21869589  0.83451311  0.16542651    -0.76800
C579        C  0.27268987  0.82192403  0.27468599     0.84300
O580        O  0.16471014  0.74886809  0.25555329    -0.77900
O581        O  0.20173335  0.89012483  0.33934856    -0.79400
O582        O  0.21731191  0.96282159  0.22916906    -0.79200
O583        O  0.18327471  0.88759847  0.16648950    -0.77800
Zn584      Zn  0.22216668  0.81295880  0.21996548     1.55700
O585        O  0.24480893  0.93981644  0.27656983    -0.79200
Cd586      Cd  0.18441456  0.90949369  0.22405630     1.59700
Cd587      Cd  0.17057556  0.81853329  0.27784546     1.59600
O588        O  0.14346461  0.92710872  0.24846559    -0.79200
O589        O  0.19946292  0.85408688  0.25052713    -1.89700
Cd590      Cd  0.22381815  0.88015783  0.29118796     1.59900
O591        O  0.13475069  0.85898907  0.27719565    -0.79200
O592        O  0.25596945  0.83476318  0.30076749    -0.77800
C593        C  0.18229007  0.72610702  0.23473218     0.84700
C594        C  0.20085730  0.86076119  0.14844998     0.84400
O595        O  0.26369041  0.81408964  0.24076683    -0.76800
C596        C  0.23979942  0.96756030  0.25016906     0.85200
O597        O  0.20436792  0.74677904  0.22201041    -0.76900
C598        C  0.12745749  0.90088311  0.26848330     0.85300
C599        C  0.19073172  0.85445638  0.35460140     0.85700
O600        O  0.18172179  0.81807328  0.33497556    -0.79300
N601        N  0.42431351  0.54581944  0.49045307    -0.01800
C602        C  0.40121323  0.55863109  0.46934206     0.00800
C603        C  0.40986991  0.57966426  0.43675748    -0.22100
C604        C  0.43855747  0.58422395  0.43891160    -0.22300
C605        C  0.44663801  0.56484982  0.47220825     0.00700
H606        H  0.39636335  0.59587427  0.41599222     0.14500
H607        H  0.45202265  0.60188357  0.41923714     0.14500
N608        N  0.42421549  0.53920904  0.23624468    -0.01800
C609        C  0.40120978  0.55373710  0.21593652     0.00800
C610        C  0.41035181  0.57402437  0.18321460    -0.22100
C611        C  0.43932039  0.57650292  0.18498424    -0.22300
C612        C  0.44719074  0.55693104  0.21829795     0.00700
H613        H  0.39719731  0.59140265  0.16272531     0.14500
H614        H  0.45303249  0.59389346  0.16547436     0.14500
O615        O  0.46219590  0.89935466  0.08427794    -0.76800
C616        C  0.01944294  0.90602323  0.48092333     0.84300
O617        O  0.41045942  0.96651123  0.48591420    -0.74700
O618        O  0.45370413  0.83104211  0.40974413    -0.79400
O619        O  0.46545310  0.75877484  0.01617729    -0.79200
O620        O  0.43382758  0.83419463  0.08202656    -0.77800
Zn621      Zn  0.46780169  0.91781131  0.02951043     1.55700
O622        O  0.49619874  0.78953198  0.47653688    -0.79200
Cd623      Cd  0.43294612  0.81291480  0.02389780     1.59700
Cd624      Cd  0.42083774  0.90032382  0.46664576     1.59600
O625        O  0.38976211  0.79834331  0.00076730    -0.79200
O626        O  0.44799287  0.86962552  0.49892706    -1.89700
Cd627      Cd  0.47367597  0.84619518  0.46011532     1.59900
O628        O  0.38579916  0.86140035  0.46483944    -0.79200
O629        O  0.00247754  0.89846761  0.45332525    -0.77800
C630        C  0.42773815  0.99702365  0.50069471     0.84700
C631        C  0.44789215  0.86723021  0.10059431     0.84400
O632        O  0.01026956  0.91384989  0.01426362    -0.76800
C633        C  0.48918997  0.75736600  0.49856042     0.85200
O634        O  0.45060498  0.98391749  0.01773939    -0.76900
C635        C  0.37541913  0.82374290  0.47750104     0.85300
C636        C  0.44303452  0.86560816  0.39282518     0.85700
O637        O  0.43353880  0.90187975  0.41112106    -0.79300
O638        O  0.44496061  0.90444612  0.33595286    -0.76800
C639        C  0.02426672  0.91274528  0.26950853     0.84300
O640        O  0.41304867  0.95838355  0.22581499    -0.77900
O641        O  0.47256662  0.86822442  0.15947694    -0.79400
O642        O  0.46899380  0.75760559  0.26400554    -0.79200
O643        O  0.44500801  0.82507589  0.33361082    -0.77800
Zn644      Zn  0.46075914  0.91690444  0.28572938     1.55700
O645        O  0.49860193  0.79093809  0.22357316    -0.79200
Cd646      Cd  0.43996195  0.80986319  0.27662347     1.59700
Cd647      Cd  0.41714158  0.88468203  0.21781613     1.59600
O648        O  0.39666800  0.79107192  0.27134322    -0.79200
O649        O  0.45025434  0.86753178  0.24897357    -1.89700
Cd650      Cd  0.48397986  0.85903840  0.21609132     1.59900
O651        O  0.38084028  0.85192553  0.23854958    -0.79200
O652        O  0.01944771  0.89983550  0.23514106    -0.77800
C653        C  0.42683693  0.99026665  0.24572242     0.84700
C654        C  0.44380777  0.86492598  0.35195965     0.84400
O655        O  0.00392920  0.91828458  0.29256541    -0.76800
C656        C  0.49139002  0.75686601  0.24417249     0.85200
O657        O  0.44602800  0.97943979  0.26948490    -0.76900
C658        C  0.37639966  0.81679881  0.25957133     0.85300
C659        C  0.44839001  0.86803395  0.14234081     0.85700
O660        O  0.42492914  0.86905293  0.16022596    -0.79300
N661        N  0.07230515  0.92293941  0.48417022    -0.01800
C662        C  0.09536914  0.89623221  0.47470874     0.00800
C663        C  0.08660629  0.85251257  0.45881126    -0.22100
C664        C  0.05761366  0.85191261  0.45839984    -0.22300
C665        C  0.04947194  0.89500454  0.47446324     0.00700
H666        H  0.10003307  0.82274552  0.45083691     0.14500
H667        H  0.04396173  0.82242540  0.44874514     0.14500
N668        N  0.07703994  0.93322867  0.26647314    -0.01800
C669        C  0.10019003  0.91744224  0.28574621     0.00800
C670        C  0.09115684  0.89492388  0.31760046    -0.22100
C671        C  0.06210599  0.89322184  0.31639957    -0.22300
C672        C  0.05402014  0.91537648  0.28425873     0.00700
H673        H  0.10438234  0.87572951  0.33699572     0.14500
H674        H  0.04850219  0.87430004  0.33514881     0.14500
O675        O  0.49504279  0.56060770  0.45900569    -0.76800
C676        C  0.05797711  0.61518308  0.39386169     0.84300
O677        O  0.08636879  0.49825284  0.01077297    -0.77900
O678        O  0.10770348  0.67830464  0.49968801    -0.79400
O679        O  0.50149960  0.68298312  0.02224582    -0.79200
O680        O  0.48335209  0.57452473  0.01854446    -0.77800
Zn681      Zn  0.03703619  0.55952942  0.45933306     1.55700
O682        O  0.03287268  0.71592438  0.48439670    -0.79200
Cd683      Cd  0.01824135  0.61765552  0.03097266     1.59700
Cd684      Cd  0.07970621  0.56948933  0.02745365     1.59600
O685        O  0.03063719  0.61629863  0.08604674    -0.79200
O686        O  0.05084856  0.60350742  0.49718319    -1.89700
Cd687      Cd  0.06569583  0.66339409  0.47454707     1.59900
O688        O  0.06930428  0.57079561  0.08373488    -0.79200
O689        O  0.06750848  0.65073714  0.41447620    -0.77800
C690        C  0.07022616  0.47392756  0.48784014     0.84700
C691        C  0.47646449  0.56495488  0.48435422     0.84400
O692        O  0.04695363  0.57882733  0.40815714    -0.76800
C693        C  0.00911842  0.71691104  0.50222902     0.85200
O694        O  0.05100519  0.49379116  0.46842329    -0.76900
C695        C  0.05064360  0.59427796  0.10199003     0.85300
C696        C  0.12392119  0.65077238  0.01866146     0.85700
O697        O  0.11587249  0.60911330  0.02703668    -0.79300
O698        O  0.49682614  0.55085278  0.20861292    -0.76800
C699        C  0.05216168  0.59707641  0.14272965     0.84300
O700        O  0.08981952  0.51439771  0.27216299    -0.77900
O701        O  0.10319576  0.67726936  0.21529885    -0.79400
O702        O  0.00329544  0.68290191  0.26810028    -0.79200
O703        O  0.48291199  0.57398334  0.26585161    -0.77800
Zn704      Zn  0.03993985  0.55184140  0.21283720     1.55700
O705        O  0.03189266  0.71350760  0.22539006    -0.79200
Cd706      Cd  0.01882044  0.61683932  0.27979798     1.59700
Cd707      Cd  0.08606004  0.58935097  0.27629217     1.59600
O708        O  0.03276845  0.61577617  0.33597743    -0.79200
O709        O  0.05159116  0.60425838  0.24620616    -1.89700
Cd710      Cd  0.05985113  0.65891038  0.21440313     1.59900
O711        O  0.08026096  0.60994905  0.33369382    -0.79200
O712        O  0.05100500  0.63800218  0.15935022    -0.77800
C713        C  0.07474814  0.48154752  0.25503635     0.84700
C714        C  0.47713719  0.55880635  0.23222960     0.84400
O715        O  0.05360017  0.55894175  0.16056677    -0.76800
C716        C  0.00988694  0.71551383  0.24587440     0.85200
O717        O  0.05477802  0.49123710  0.23208805    -0.76900
C718        C  0.05727932  0.61529150  0.35224423     0.85300
C719        C  0.12446269  0.65538500  0.22890783     0.85700
O720        O  0.12146063  0.62233331  0.25237251    -0.79300
N721        N  0.32387714  0.79711962  0.98255969    -0.01800
C722        C  0.34620434  0.81312004  0.96258737     0.00800
C723        C  0.33598823  0.83804905  0.43204654    -0.22100
C724        C  0.30708421  0.83956962  0.43424210    -0.22300
C725        C  0.30026055  0.81540462  0.46570458     0.00700
H726        H  0.34854711  0.85739124  0.41236856     0.14500
H727        H  0.29279630  0.85878277  0.41632971     0.14500
N728        N  0.32370333  0.79631658  0.76724064    -0.01800
C729        C  0.34893246  0.81640711  0.77948643     0.00800
C730        C  0.34391745  0.85423914  0.80469435    -0.22100
C731        C  0.31511343  0.85845741  0.80768730    -0.22300
C732        C  0.30330513  0.82328315  0.78399630     0.00700
H733        H  0.35955866  0.87918708  0.81671230     0.14500
H734        H  0.30402020  0.88640462  0.82317814     0.14500
O735        O  0.24837722  0.67164872  0.54023080    -0.76800
C736        C  0.31385340  0.61905570  0.59806012     0.84300
O737        O  0.33375809  0.71757835  0.97013383    -0.77900
O738        O  0.35536506  0.54576608  0.49903980    -0.79400
O739        O  0.24960259  0.54565096  0.97554506    -0.79200
O740        O  0.23138424  0.65555505  0.98237405    -0.77800
Zn741      Zn  0.29106276  0.67242237  0.53340790     1.55700
O742        O  0.28227050  0.51376181  0.51310442    -0.79200
Cd743      Cd  0.26479398  0.61263634  0.96374973     1.59700
Cd744      Cd  0.32919474  0.64549597  0.96275563     1.59600
O745        O  0.27297354  0.61744800  0.90560495    -0.79200
O746        O  0.29977693  0.62342003  0.99584935    -1.89700
Cd747      Cd  0.31433626  0.56553536  0.52025695     1.59900
O748        O  0.32004525  0.62806113  0.90595738    -0.79200
O749        O  0.31654007  0.58047064  0.57812851    -0.77800
C750        C  0.32180122  0.74831171  0.99183772     0.84700
C751        C  0.22759800  0.66623970  0.01713381     0.84400
O752        O  0.30778602  0.65852747  0.58374824    -0.76800
C753        C  0.25818400  0.51230903  0.99610186     0.85200
O754        O  0.30462355  0.73653124  0.51743534    -0.76900
C755        C  0.29650311  0.62081240  0.88817844     0.85300
C756        C  0.37331187  0.57358441  0.98380617     0.85700
O757        O  0.36670695  0.61587492  0.97602543    -0.79300
O758        O  0.23670960  0.66015434  0.74950056    -0.76800
C759        C  0.29667651  0.61704323  0.84634883     0.84300
O760        O  0.33681234  0.72290539  0.73805790    -0.77900
O761        O  0.35678705  0.54597876  0.75119267    -0.79400
O762        O  0.25715597  0.53152844  0.71600546    -0.79200
O763        O  0.24507255  0.63529557  0.69044165    -0.77800
Zn764      Zn  0.27767879  0.66117782  0.77217138     1.55700
O765        O  0.28240372  0.51212076  0.76665740    -0.79200
Cd766      Cd  0.27811155  0.59148489  0.70116711     1.59700
Cd767      Cd  0.33144692  0.65300334  0.71738712     1.59600
O768        O  0.30165384  0.58192695  0.65334307    -0.79200
O769        O  0.30103782  0.61888052  0.74318250    -1.89700
Cd770      Cd  0.31517077  0.56521499  0.77254577     1.59900
O771        O  0.32309121  0.65273936  0.65952206    -0.79200
O772        O  0.31464647  0.58950774  0.82970263    -0.77800
C773        C  0.31864308  0.74666039  0.75708337     0.84700
C774        C  0.22814545  0.65061094  0.71560000     0.84400
O775        O  0.27924677  0.64234126  0.82782260    -0.76800
C776        C  0.26096353  0.50572775  0.74400364     0.85200
O777        O  0.29605490  0.72684613  0.76916959    -0.76900
C778        C  0.31393211  0.61723270  0.63904801     0.85300
C779        C  0.37376581  0.57149156  0.73198274     0.85700
O780        O  0.36713811  0.61320484  0.72216951    -0.79300
N781        N  0.17456819  0.68270379  0.51539233    -0.01800
C782        C  0.15236980  0.66493773  0.53485453     0.00800
C783        C  0.16278463  0.64053242  0.56531875    -0.22100
C784        C  0.19176571  0.64081634  0.56350232    -0.22300
C785        C  0.19834066  0.66554144  0.53221111     0.00700
H786        H  0.15049200  0.61977133  0.58440154     0.14500
H787        H  0.20630553  0.62190054  0.58130116     0.14500
N788        N  0.17711069  0.67687444  0.72321203    -0.01800
C789        C  0.15189996  0.65842410  0.70922745     0.00800
C790        C  0.15697380  0.62311205  0.68187059    -0.22100
C791        C  0.18578750  0.61851985  0.67932194    -0.22300
C792        C  0.19756795  0.65105093  0.70534566     0.00700
H793        H  0.14131906  0.59955770  0.66812108     0.14500
H794        H  0.19684287  0.59181365  0.66246604     0.14500
O795        O  0.19160580  0.81556796  0.91194767    -0.76800
C796        C  0.27134147  0.81501313  0.98042913     0.84300
O797        O  0.16299039  0.76284715  0.52531083    -0.77900
O798        O  0.22393948  0.86288157  0.58934088    -0.79400
O799        O  0.21603489  0.96792300  0.98115029    -0.79200
O800        O  0.19193371  0.89488696  0.91387103    -0.77800
Zn801      Zn  0.20796453  0.80579763  0.96331495     1.55700
O802        O  0.24758057  0.93767478  0.52105395    -0.79200
Cd803      Cd  0.18727683  0.91214897  0.97038256     1.59700
Cd804      Cd  0.16768000  0.83667342  0.53202944     1.59600
O805        O  0.14337295  0.92547311  0.97497190    -0.79200
O806        O  0.19886955  0.85618343  0.99945894    -1.89700
Cd807      Cd  0.23296923  0.86978131  0.53201282     1.59900
O808        O  0.13103362  0.86732162  0.51291930    -0.79200
O809        O  0.26719393  0.82859970  0.51451029    -0.77800
C810        C  0.17625532  0.73147494  0.00517481     0.84700
C811        C  0.19075258  0.85489198  0.89561006     0.84400
O812        O  0.25065056  0.80690836  0.95739612    -0.76800
C813        C  0.23948955  0.97049190  0.99988214     0.85200
O814        O  0.19425677  0.74298925  0.98067513    -0.76900
C815        C  0.12462733  0.89971155  0.99035226     0.85300
C816        C  0.20040973  0.85942612  0.60671603     0.85700
O817        O  0.17663900  0.85378895  0.58904510    -0.79300
O818        O  0.21865235  0.83464815  0.66539261    -0.76800
C819        C  0.27265229  0.82196364  0.77469912     0.84300
O820        O  0.16471267  0.74897223  0.75556618    -0.77900
O821        O  0.20176235  0.89022997  0.83936982    -0.79400
O822        O  0.21732764  0.96291503  0.72921899    -0.79200
O823        O  0.18324732  0.88776165  0.66650006    -0.77800
Zn824      Zn  0.22215115  0.81306991  0.71993681     1.55700
O825        O  0.24486109  0.93981789  0.77655576    -0.79200
Cd826      Cd  0.18441208  0.90961405  0.72407994     1.59700
Cd827      Cd  0.17060299  0.81862948  0.77789948     1.59600
O828        O  0.14345568  0.92722159  0.74847267    -0.79200
O829        O  0.19945550  0.85418176  0.75052898    -1.89700
Cd830      Cd  0.22382352  0.88021087  0.79119069     1.59900
O831        O  0.13480180  0.85915887  0.77731029    -0.79200
O832        O  0.25590527  0.83469910  0.80077567    -0.77800
C833        C  0.18227221  0.72621839  0.73470476     0.84700
C834        C  0.20080740  0.86090842  0.64843568     0.84400
O835        O  0.26367959  0.81420237  0.74075790    -0.76800
C836        C  0.23983556  0.96760402  0.75018719     0.85200
O837        O  0.20434407  0.74689021  0.72196513    -0.76900
C838        C  0.12747308  0.90101487  0.76853718     0.85300
C839        C  0.19080249  0.85453776  0.85463781     0.85700
O840        O  0.18180737  0.81813981  0.83501677    -0.79300
N841        N  0.42442416  0.54564577  0.99035952    -0.01800
C842        C  0.40133484  0.55837001  0.96919313     0.00800
C843        C  0.41000864  0.57932641  0.93658315    -0.22100
C844        C  0.43869033  0.58396617  0.93878958    -0.22300
C845        C  0.44675377  0.56469211  0.97213301     0.00700
H846        H  0.39651142  0.59545467  0.91576520     0.14500
H847        H  0.45216100  0.60161159  0.91911334     0.14500
N848        N  0.42421869  0.53936163  0.73637536    -0.01800
C849        C  0.40121724  0.55389295  0.71605865     0.00800
C850        C  0.41035751  0.57414120  0.68332294    -0.22100
C851        C  0.43932446  0.57658860  0.68507949    -0.22300
C852        C  0.44719403  0.55704581  0.71840400     0.00700
H853        H  0.39720415  0.59150275  0.66282294     0.14500
H854        H  0.45303873  0.59394158  0.66555136     0.14500
O855        O  0.46206681  0.89941860  0.58427781    -0.76800
C856        C  0.01956545  0.90601771  0.98092011     0.84300
O857        O  0.41057162  0.96635061  0.98587866    -0.74700
O858        O  0.45388280  0.83092601  0.90973085    -0.79400
O859        O  0.46531287  0.75882458  0.51618445    -0.79200
O860        O  0.43366980  0.83429534  0.58204905    -0.77800
Zn861      Zn  0.46768398  0.91786801  0.52951393     1.55700
O862        O  0.49636875  0.78953404  0.97659003    -0.79200
Cd863      Cd  0.43279623  0.81299666  0.52390910     1.59700
Cd864      Cd  0.42098646  0.90018243  0.96662782     1.59600
O865        O  0.38959895  0.79848092  0.50076863    -0.79200
O866        O  0.44813881  0.86953981  0.99892218    -1.89700
Cd867      Cd  0.47383233  0.84614389  0.96011760     1.59900
O868        O  0.38597450  0.86121669  0.96479371    -0.79200
O869        O  0.00260267  0.89844396  0.95332088    -0.77800
C870        C  0.42784346  0.99689461  0.00063122     0.84700
C871        C  0.44774747  0.86732603  0.60060772     0.84400
O872        O  0.01014776  0.91388674  0.51426529    -0.76800
C873        C  0.48934263  0.75734957  0.99858844     0.85200
O874        O  0.45049870  0.98400445  0.51778576    -0.76900
C875        C  0.37559205  0.82357350  0.97747131     0.85300
C876        C  0.44318753  0.86547842  0.89282050     0.85700
O877        O  0.43369112  0.90174105  0.91112309    -0.79300
O878        O  0.44500431  0.90436499  0.83597586    -0.76800
C879        C  0.02425075  0.91291298  0.76943425     0.84300
O880        O  0.41303516  0.95852574  0.72592047    -0.77900
O881        O  0.47245436  0.86838227  0.65946390    -0.79400
O882        O  0.46894591  0.75768283  0.76381438    -0.79200
O883        O  0.44513167  0.82499595  0.83357574    -0.77800
Zn884      Zn  0.46075347  0.91695488  0.78576088     1.55700
O885        O  0.49861114  0.79117076  0.72353025    -0.79200
Cd886      Cd  0.43995427  0.80992883  0.77658611     1.59700
Cd887      Cd  0.41708667  0.88482436  0.71789194     1.59600
O888        O  0.39663872  0.79120859  0.77144849    -0.79200
O889        O  0.45022674  0.86764566  0.74897929    -1.89700
Cd890      Cd  0.48394101  0.85925257  0.71606059     1.59900
O891        O  0.38080191  0.85210278  0.73871026    -0.79200
O892        O  0.01940775  0.90012386  0.73504692    -0.77800
C893        C  0.42683149  0.99038703  0.74584026     0.84700
C894        C  0.44391966  0.86482148  0.85195616     0.84400
O895        O  0.00392713  0.91835418  0.79252285    -0.76800
C896        C  0.49137320  0.75702516  0.74404288     0.85200
O897        O  0.44601779  0.97953085  0.76960066    -0.76900
C898        C  0.37636763  0.81696277  0.75972129     0.85300
C899        C  0.44826445  0.86815603  0.64235869     0.85700
O900        O  0.42481646  0.86917494  0.66027727    -0.79300
N901        N  0.07241998  0.92296614  0.98424791    -0.01800
C902        C  0.09549147  0.89628074  0.97478376     0.00800
C903        C  0.08674551  0.85259268  0.95881244    -0.22100
C904        C  0.05775488  0.85198818  0.95835221    -0.22300
C905        C  0.04959779  0.89504257  0.97446262     0.00700
H906        H  0.10018220  0.82284551  0.95081505     0.14500
H907        H  0.04410916  0.82251177  0.94863830     0.14500
N908        N  0.07704814  0.93335540  0.76645373    -0.01800
C909        C  0.10017991  0.91753964  0.78575377     0.00800
C910        C  0.09111251  0.89496954  0.81756720    -0.22100
C911        C  0.06206425  0.89326244  0.81631089    -0.22300
C912        C  0.05400872  0.91546921  0.78418216     0.00700
H913        H  0.10431641  0.87575332  0.83697304     0.14500
H914        H  0.04844097  0.87432199  0.83502390     0.14500
O915        O  0.49517057  0.56054017  0.95900004    -0.76800
C916        C  0.05802325  0.61524161  0.89383757     0.84300
O917        O  0.08627716  0.49819217  0.51067591    -0.77900
O918        O  0.10783232  0.67832188  0.99960610    -0.79400
O919        O  0.50136921  0.68300259  0.52223157    -0.79200
O920        O  0.48327015  0.57452507  0.51857372    -0.77800
Zn921      Zn  0.03715133  0.55954623  0.95933368     1.55700
O922        O  0.03301273  0.71592465  0.98443221    -0.79200
Cd923      Cd  0.01815121  0.61768200  0.53095899     1.59700
Cd924      Cd  0.07959141  0.56940870  0.52742519     1.59600
O925        O  0.03056841  0.61631948  0.58601220    -0.79200
O926        O  0.05094986  0.60352902  0.99719425    -1.89700
Cd927      Cd  0.06580260  0.66339987  0.97453598     1.59900
O928        O  0.06915948  0.57063387  0.58369809    -0.79200
O929        O  0.06753776  0.65079867  0.91446011    -0.77800
C930        C  0.07033274  0.47398084  0.98792367     0.84700
C931        C  0.47657340  0.56488717  0.98432414     0.84400
O932        O  0.04704696  0.57884010  0.90812868    -0.76800
C933        C  0.00925507  0.71689460  0.00224970     0.85200
O934        O  0.05113099  0.49383543  0.96846854    -0.76900
C935        C  0.05053758  0.59420917  0.60195328     0.85300
C936        C  0.12379153  0.65074286  0.51873419     0.85700
O937        O  0.11575026  0.60906489  0.52707482    -0.79300
O938        O  0.49681863  0.55094626  0.70867778    -0.76800
C939        C  0.05207053  0.59705368  0.64269013     0.84300
O940        O  0.08987183  0.51451691  0.77209897    -0.77900
O941        O  0.10314234  0.67727419  0.71506831    -0.79400
O942        O  0.00329253  0.68308151  0.76798368    -0.79200
O943        O  0.48293435  0.57414660  0.76591620    -0.77800
Zn944      Zn  0.03993753  0.55194196  0.71284842     1.55700
O945        O  0.03187587  0.71365610  0.72524509    -0.79200
Cd946      Cd  0.01883189  0.61704616  0.77977958     1.59700
Cd947      Cd  0.08607220  0.58948285  0.77623597     1.59600
O948        O  0.03279274  0.61601197  0.83596487    -0.79200
O949        O  0.05158569  0.60439633  0.74617653    -1.89700
Cd950      Cd  0.05979434  0.65898764  0.71428344     1.59900
O951        O  0.08027459  0.60998244  0.83365376    -0.79200
O952        O  0.05085998  0.63799168  0.65927751    -0.77800
C953        C  0.07476918  0.48166963  0.75501840     0.84700
C954        C  0.47714370  0.55892169  0.73231160     0.84400
O955        O  0.05358890  0.55895740  0.66056278    -0.76800
C956        C  0.00987316  0.71567497  0.74573333     0.85200
O957        O  0.05477725  0.49137019  0.73211087    -0.76900
C958        C  0.05730559  0.61540178  0.85221917     0.85300
C959        C  0.12442563  0.65552631  0.72877532     0.85700
O960        O  0.12144910  0.62256880  0.75232864    -0.79300
N961        N  0.82369649  0.29724236  0.48255183    -0.01800
C962        C  0.84602729  0.31328905  0.46260919     0.00800
C963        C  0.83616146  0.33790352  0.93203628    -0.22100
C964        C  0.80726322  0.33951336  0.93428361    -0.22300
C965        C  0.80044182  0.31536124  0.96575495     0.00700
H966        H  0.84872076  0.35722062  0.91234404     0.14500
H967        H  0.79298097  0.35876560  0.91639494     0.14500
N968        N  0.82372295  0.29622156  0.26711448    -0.01800
C969        C  0.84896745  0.31627182  0.27934040     0.00800
C970        C  0.84399228  0.35406519  0.30459713    -0.22100
C971        C  0.81519474  0.35830171  0.30765100    -0.22300
C972        C  0.80335041  0.32317855  0.28394302     0.00700
H973        H  0.85965503  0.37897118  0.31662006     0.14500
H974        H  0.80412787  0.38623193  0.32319648     0.14500
O975        O  0.74851216  0.17156705  0.04020857    -0.76800
C976        C  0.81393670  0.11883867  0.09800942     0.84300
O977        O  0.83358782  0.21770850  0.47013661    -0.77900
O978        O  0.85551280  0.04558977  0.99899417    -0.79400
O979        O  0.74950585  0.04569963  0.47544743    -0.79200
O980        O  0.73125472  0.15558016  0.48238332    -0.77800
Zn981      Zn  0.79119661  0.17227775  0.03336364     1.55700
O982        O  0.78242677  0.01362772  0.01307956    -0.79200
Cd983      Cd  0.76469702  0.11272705  0.46372851     1.59700
Cd984      Cd  0.82910372  0.14560518  0.46283666     1.59600
O985        O  0.77295880  0.11754719  0.40558796    -0.79200
O986        O  0.79964734  0.12355439  0.49588816    -1.89700
Cd987      Cd  0.81448399  0.06538399  0.02020174     1.59900
O988        O  0.82004641  0.12799392  0.40601305    -0.79200
O989        O  0.81664641  0.08025920  0.07807916    -0.77800
C990        C  0.82164165  0.24844316  0.49184974     0.84700
C991        C  0.72746482  0.16626764  0.51714587     0.84400
O992        O  0.80789560  0.15831904  0.08369375    -0.76800
C993        C  0.75806165  0.01238162  0.49604709     0.85200
O994        O  0.80476614  0.23639147  0.01740027    -0.76900
C995        C  0.79651227  0.12079932  0.38819334     0.85300
C996        C  0.87320500  0.07383246  0.48400419     0.85700
O997        O  0.86663330  0.11619267  0.47638465    -0.79300
O998        O  0.73674172  0.16003988  0.24949472    -0.76800
C999        C  0.79670969  0.11699233  0.34635152     0.84300
O1000       O  0.83680944  0.22280146  0.23792434    -0.77900
O1001       O  0.85678541  0.04584555  0.25110445    -0.79400
O1002       O  0.75711755  0.03150178  0.21599962    -0.79200
O1003       O  0.74510097  0.13528491  0.19041153    -0.77800
Zn1004     Zn  0.77771452  0.16109176  0.27213474     1.55700
O1005       O  0.78239088  0.01203924  0.26661748    -0.79200
Cd1006     Cd  0.77810983  0.09140403  0.20112867     1.59700
Cd1007     Cd  0.83145789  0.15286744  0.21732151     1.59600
O1008       O  0.80163769  0.08176375  0.15328785    -0.79200
O1009       O  0.80105618  0.11876710  0.24314531    -1.89700
Cd1010     Cd  0.81518042  0.06510186  0.27252289     1.59900
O1011       O  0.82312722  0.15253218  0.15946221    -0.79200
O1012       O  0.81465563  0.08939379  0.32971368    -0.77800
C1013       C  0.81864920  0.24656874  0.25695724     0.84700
C1014       C  0.72817328  0.15054102  0.21559021     0.84400
O1015       O  0.77930838  0.14232020  0.32780512    -0.76800
C1016       C  0.76093316  0.00568402  0.24398592     0.85200
O1017       O  0.79607072  0.22676112  0.26907569    -0.76900
C1018       C  0.81396441  0.11702617  0.13899475     0.85300
C1019       C  0.87376583  0.07135310  0.23188854     0.85700
O1020       O  0.86715131  0.11308375  0.22210346    -0.79300
N1021       N  0.67470781  0.18270461  0.01531759    -0.01800
C1022       C  0.65249974  0.16496652  0.03477674     0.00800
C1023       C  0.66289719  0.14061673  0.06527855    -0.22100
C1024       C  0.69187898  0.14090139  0.06349291    -0.22300
C1025       C  0.69847047  0.16556836  0.03217931     0.00700
H1026       H  0.65059341  0.11989210  0.08437366     0.14500
H1027       H  0.70640845  0.12201454  0.08132496     0.14500
N1028       N  0.67713959  0.17675944  0.22325121    -0.01800
C1029       C  0.65192459  0.15825905  0.20932553     0.00800
C1030       C  0.65698938  0.12293322  0.18197658    -0.22100
C1031       C  0.68580358  0.11838903  0.17937149    -0.22300
C1032       C  0.69759220  0.15095419  0.20536104     0.00700
H1033       H  0.64133306  0.09935057  0.16826334     0.14500
H1034       H  0.69685678  0.09168742  0.16250881     0.14500
O1035       O  0.69140754  0.31551331  0.41192504    -0.76800
C1036       C  0.77115953  0.31502724  0.48037211     0.84300
O1037       O  0.66311665  0.26283115  0.02524369    -0.77900
O1038       O  0.72403879  0.36274760  0.08938887    -0.79400
O1039       O  0.71591736  0.46800356  0.48107308    -0.79200
O1040       O  0.69189049  0.39483156  0.41381401    -0.77800
Zn1041     Zn  0.70778532  0.30576987  0.46329246     1.55700
O1042       O  0.74769759  0.43759732  0.02112823    -0.79200
Cd1043     Cd  0.68717666  0.41215967  0.47030174     1.59700
Cd1044     Cd  0.66780176  0.33663185  0.03202542     1.59600
O1045       O  0.64325687  0.42539680  0.47481425    -0.79200
O1046       O  0.69873129  0.35620819  0.49942295    -1.89700
Cd1047     Cd  0.73310406  0.36969791  0.03207231     1.59900
O1048       O  0.63114819  0.36728097  0.01295910    -0.79200
O1049       O  0.76736675  0.32856983  0.01456905    -0.77800
C1050       C  0.67610770  0.23147243  0.50522947     0.84700
C1051       C  0.69064538  0.35482975  0.39556850     0.84400
O1052       O  0.75046772  0.30688282  0.45734642    -0.76800
C1053       C  0.73937058  0.47058614  0.49981314     0.85200
O1054       O  0.69408305  0.24296901  0.48069189    -0.76900
C1055       C  0.62451207  0.39968640  0.49025067     0.85300
C1056       C  0.70049551  0.35929536  0.10673542     0.85700
O1057       O  0.67673493  0.35368494  0.08904086    -0.79300
O1058       O  0.71869783  0.33451859  0.16542583    -0.76800
C1059       C  0.77268952  0.32192472  0.27468802     0.84300
O1060       O  0.66470989  0.24887117  0.25554931    -0.77900
O1061       O  0.70173058  0.39012837  0.33934595    -0.79400
O1062       O  0.71731430  0.46282679  0.22916931    -0.79200
O1063       O  0.68327675  0.38760450  0.16648931    -0.77800
Zn1064     Zn  0.72216759  0.31296107  0.21996419     1.55700
O1065       O  0.74480974  0.43982233  0.27657169    -0.79200
Cd1066     Cd  0.68441640  0.40949900  0.22405608     1.59700
Cd1067     Cd  0.67057736  0.31853535  0.27784232     1.59600
O1068       O  0.64346586  0.42711224  0.24846570    -0.79200
O1069       O  0.69946455  0.35409058  0.25052524    -1.89700
Cd1070     Cd  0.72381817  0.38016289  0.29118739     1.59900
O1071       O  0.63475300  0.35899090  0.27719378    -0.79200
O1072       O  0.75596942  0.33476882  0.30076858    -0.77800
C1073       C  0.68228927  0.22610931  0.23472804     0.84700
C1074       C  0.70085926  0.36076719  0.14844963     0.84400
O1075       O  0.76369041  0.31408896  0.24076878    -0.76800
C1076       C  0.73980128  0.46756581  0.25017036     0.85200
O1077       O  0.70436763  0.24678049  0.22200666    -0.76900
C1078       C  0.62745905  0.40088484  0.26848253     0.85300
C1079       C  0.69073070  0.35445808  0.35459831     0.85700
O1080       O  0.68172353  0.31807349  0.33497204    -0.79300
N1081       N  0.92431547  0.04582074  0.49045283    -0.01800
C1082       C  0.90121573  0.05863367  0.46934132     0.00800
C1083       C  0.90987321  0.07966678  0.43675713    -0.22100
C1084       C  0.93856084  0.08422440  0.43891162    -0.22300
C1085       C  0.94664066  0.06484943  0.47220824     0.00700
H1086       H  0.89636726  0.09587705  0.41599133     0.14500
H1087       H  0.95202663  0.10188261  0.41923714     0.14500
N1088       N  0.92421368  0.03921113  0.23624840    -0.01800
C1089       C  0.90120907  0.05374116  0.21593892     0.00800
C1090       C  0.91035311  0.07403544  0.18322081    -0.22100
C1091       C  0.93932137  0.07651561  0.18499429    -0.22300
C1092       C  0.94718986  0.05693707  0.21830595     0.00700
H1093       H  0.89719979  0.09141630  0.16273162     0.14500
H1094       H  0.95303462  0.09390970  0.16548775     0.14500
O1095       O  0.96219469  0.39935429  0.08427880    -0.76800
C1096       C  0.51944134  0.40602018  0.48092263     0.84300
O1097       O  0.91045780  0.46650934  0.48591575    -0.74700
O1098       O  0.95370070  0.33104198  0.40974088    -0.79400
O1099       O  0.96545208  0.25877787  0.01617524    -0.79200
O1100       O  0.93382578  0.33419491  0.08202563    -0.77800
Zn1101     Zn  0.96780084  0.41781360  0.02951266     1.55700
O1102       O  0.99619551  0.28952517  0.47653193    -0.79200
Cd1103     Cd  0.93294528  0.31291735  0.02389674     1.59700
Cd1104     Cd  0.92083456  0.40032184  0.46664611     1.59600
O1105       O  0.88976197  0.29834543  0.00076540    -0.79200
O1106       O  0.94799096  0.36962153  0.49892515    -1.89700
Cd1107     Cd  0.97367335  0.34619092  0.46011235     1.59900
O1108       O  0.88579525  0.36140089  0.46484262    -0.79200
O1109       O  0.50247651  0.39846211  0.45332419    -0.77800
C1110       C  0.92773737  0.49702174  0.50069432     0.84700
C1111       C  0.94789041  0.36722970  0.10059412     0.84400
O1112       O  0.51026874  0.41385141  0.01426524    -0.76800
C1113       C  0.98918757  0.25735969  0.49855651     0.85200
O1114       O  0.95060417  0.48392037  0.01774526    -0.76900
C1115       C  0.87541606  0.32374192  0.47750258     0.85300
C1116       C  0.94302948  0.36560752  0.39282288     0.85700
O1117       O  0.93353248  0.40187755  0.41111960    -0.79300
O1118       O  0.94495906  0.40444662  0.33595083    -0.76800
C1119       C  0.52426727  0.41273853  0.26950621     0.84300
O1120       O  0.91304843  0.45838281  0.22581402    -0.77900
O1121       O  0.97256463  0.36822234  0.15947624    -0.79400
O1122       O  0.96899112  0.25760395  0.26400538    -0.79200
O1123       O  0.94500154  0.32507606  0.33360827    -0.77800
Zn1124     Zn  0.96075920  0.41690290  0.28572714     1.55700
O1125       O  0.99859832  0.29093414  0.22357069    -0.79200
Cd1126     Cd  0.93995893  0.30986143  0.27662082     1.59700
Cd1127     Cd  0.91713983  0.38468109  0.21781534     1.59600
O1128       O  0.89666606  0.29106587  0.27133643    -0.79200
O1129       O  0.95025274  0.36753014  0.24897200    -1.89700
Cd1130     Cd  0.98397807  0.35903530  0.21608978     1.59900
O1131       O  0.88083830  0.35192484  0.23854924    -0.79200
O1132       O  0.51944780  0.39982785  0.23513901    -0.77800
C1133       C  0.92683845  0.49026615  0.24571907     0.84700
C1134       C  0.94380308  0.36492632  0.35195725     0.84400
O1135       O  0.50392994  0.41827892  0.29256328    -0.76800
C1136       C  0.99138677  0.25686322  0.24417132     0.85200
O1137       O  0.94603044  0.47943937  0.26948036    -0.76900
C1138       C  0.87639773  0.31679512  0.25956807     0.85300
C1139       C  0.94838802  0.36803240  0.14234030     0.85700
O1140       O  0.92492711  0.36905163  0.16022534    -0.79300
N1141       N  0.57230302  0.42294112  0.48417183    -0.01800
C1142       C  0.59536770  0.39623623  0.47470924     0.00800
C1143       C  0.58660626  0.35251680  0.45881004    -0.22100
C1144       C  0.55761365  0.35191418  0.45839861    -0.22300
C1145       C  0.54947073  0.39500477  0.47446332     0.00700
H1146       H  0.60003393  0.32275145  0.45083476     0.14500
H1147       H  0.54396274  0.32242667  0.44874324     0.14500
N1148       N  0.57704042  0.43322636  0.26647269    -0.01800
C1149       C  0.60019086  0.41744073  0.28574554     0.00800
C1150       C  0.59115784  0.39491821  0.31759804    -0.22100
C1151       C  0.56210706  0.39321234  0.31639569    -0.22300
C1152       C  0.55402088  0.41536953  0.28425616     0.00700
H1153       H  0.60438369  0.37572358  0.33699269     0.14500
H1154       H  0.54850365  0.37428718  0.33514330     0.14500
O1155       O  0.99504527  0.06060559  0.45900455    -0.76800
C1156       C  0.55797895  0.11518204  0.39386168     0.84300
O1157       O  0.58636595  0.99825504  0.01077568    -0.77900
O1158       O  0.60770296  0.17830507  0.49968784    -0.79400
O1159       O  0.00149682  0.18298452  0.02224081    -0.79200
O1160       O  0.98334903  0.07452550  0.01853678    -0.77800
Zn1161     Zn  0.53703841  0.05952728  0.45933224     1.55700
O1162       O  0.53287133  0.21592057  0.48439499    -0.79200
Cd1163     Cd  0.51823732  0.11765627  0.03096831     1.59700
Cd1164     Cd  0.57970267  0.06949216  0.02745423     1.59600
O1165       O  0.53062964  0.11629790  0.08604446    -0.79200
O1166       O  0.55085055  0.10350492  0.49718214    -1.89700
Cd1167     Cd  0.56569598  0.16339264  0.47454656     1.59900
O1168       O  0.56929897  0.07080017  0.08373451    -0.79200
O1169       O  0.56750952  0.15073644  0.41447630    -0.77800
C1170       C  0.57022923  0.97392639  0.48783887     0.84700
C1171       C  0.97646732  0.06495103  0.48435371     0.84400
O1172       O  0.54695599  0.07882559  0.40815674    -0.76800
C1173       C  0.50911668  0.21690558  0.50222639     0.85200
O1174       O  0.55100814  0.99379001  0.46842229    -0.76900
C1175       C  0.55063660  0.09427948  0.10198879     0.85300
C1176       C  0.62391959  0.15077329  0.01866057     0.85700
O1177       O  0.61586913  0.10911587  0.02703776    -0.79300
O1178       O  0.99682429  0.05085321  0.20861939    -0.76800
C1179       C  0.55215448  0.09707748  0.14272857     0.84300
O1180       O  0.58982061  0.01439864  0.27216131    -0.77900
O1181       O  0.60319347  0.17726898  0.21529610    -0.79400
O1182       O  0.50329246  0.18289820  0.26809997    -0.79200
O1183       O  0.98291228  0.07398077  0.26585950    -0.77800
Zn1184     Zn  0.53993783  0.05184107  0.21283845     1.55700
O1185       O  0.53188974  0.21350488  0.22539022    -0.79200
Cd1186     Cd  0.51882020  0.11683835  0.27980026     1.59700
Cd1187     Cd  0.58606002  0.08935144  0.27629129     1.59600
O1188       O  0.53276976  0.11577878  0.33597861    -0.79200
O1189       O  0.55159018  0.10425789  0.24620653    -1.89700
Cd1190     Cd  0.55984867  0.15890942  0.21440234     1.59900
O1191       O  0.58026193  0.10994652  0.33369350    -0.79200
O1192       O  0.55099996  0.13800318  0.15934952    -0.77800
C1193       C  0.57474878  0.98154844  0.25503551     0.84700
C1194       C  0.97713624  0.05880621  0.23223736     0.84400
O1195       O  0.55359271  0.05894253  0.16056545    -0.76800
C1196       C  0.50988363  0.21550996  0.24587379     0.85200
O1197       O  0.55477819  0.99123782  0.23208784    -0.76900
C1198       C  0.55728079  0.11529136  0.35224453     0.85300
C1199       C  0.62446100  0.15538693  0.22890604     0.85700
O1200       O  0.62145974  0.12233640  0.25237189    -0.79300
N1201       N  0.82387733  0.29712042  0.98255757    -0.01800
C1202       C  0.84620432  0.31312352  0.96258600     0.00800
C1203       C  0.83598594  0.33804588  0.43204617    -0.22100
C1204       C  0.80708182  0.33956506  0.43424025    -0.22300
C1205       C  0.80025778  0.31540140  0.46570323     0.00700
H1206       H  0.84854508  0.35738779  0.41236834     0.14500
H1207       H  0.79279408  0.35877710  0.41632682     0.14500
N1208       N  0.82370311  0.29631711  0.76723707    -0.01800
C1209       C  0.84893188  0.31640715  0.77948486     0.00800
C1210       C  0.84391609  0.35423738  0.80469412    -0.22100
C1211       C  0.81511193  0.35845497  0.80768601    -0.22300
C1212       C  0.80330434  0.32328232  0.78399289     0.00700
H1213       H  0.85955695  0.37918440  0.81671418     0.14500
H1214       H  0.80401815  0.38640038  0.82317816     0.14500
O1215       O  0.74837736  0.17164850  0.54022828    -0.76800
C1216       C  0.81385600  0.11905462  0.59806032     0.84300
O1217       O  0.83375897  0.21757872  0.97013166    -0.77900
O1218       O  0.85536803  0.04576687  0.49904020    -0.79400
O1219       O  0.74960473  0.04564464  0.97554097    -0.79200
O1220       O  0.73138343  0.15554635  0.98236782    -0.77800
Zn1221     Zn  0.79106298  0.17241970  0.53340755     1.55700
O1222       O  0.78227335  0.01375977  0.51310826    -0.79200
Cd1223     Cd  0.76479535  0.11263069  0.96374617     1.59700
Cd1224     Cd  0.82919683  0.14549488  0.96275606     1.59600
O1225       O  0.77297750  0.11744338  0.90560287    -0.79200
O1226       O  0.79977710  0.12341807  0.99584723    -1.89700
Cd1227     Cd  0.81433898  0.06553431  0.52025747     1.59900
O1228       O  0.82004934  0.12805750  0.90595752    -0.79200
O1229       O  0.81654459  0.08047017  0.57812865    -0.77800
C1230       C  0.82180155  0.24831198  0.99183511     0.84700
C1231       C  0.72759699  0.16623512  0.01712687     0.84400
O1232       O  0.80778562  0.15852524  0.58374867    -0.76800
C1233       C  0.75818525  0.01230457  0.99610022     0.85200
O1234       O  0.80462320  0.23652847  0.51743614    -0.76900
C1235       C  0.79650755  0.12080855  0.88817764     0.85300
C1236       C  0.87331157  0.07358163  0.98380525     0.85700
O1237       O  0.86670911  0.11587579  0.97603181    -0.79300
O1238       O  0.73671093  0.16015247  0.74950553    -0.76800
C1239       C  0.79668137  0.11704083  0.84634828     0.84300
O1240       O  0.83681329  0.22290623  0.73805557    -0.77900
O1241       O  0.85678854  0.04597718  0.75118982    -0.79400
O1242       O  0.75715680  0.03153074  0.71600671    -0.79200
O1243       O  0.74507277  0.13529833  0.69044547    -0.77800
Zn1244     Zn  0.77768151  0.16117672  0.77217235     1.55700
O1245       O  0.78240555  0.01212096  0.76665721    -0.79200
Cd1246     Cd  0.77811214  0.09148719  0.70116811     1.59700
Cd1247     Cd  0.83145103  0.15300251  0.71738855     1.59600
O1248       O  0.80165212  0.08192920  0.65334244    -0.79200
O1249       O  0.80104048  0.11888044  0.74318229    -1.89700
Cd1250     Cd  0.81517324  0.06521402  0.77254457     1.59900
O1251       O  0.82309858  0.15273432  0.65952239    -0.79200
O1252       O  0.81465095  0.08950529  0.82970154    -0.77800
C1253       C  0.81864379  0.24666050  0.75708108     0.84700
C1254       C  0.72814594  0.15061079  0.71560514     0.84400
O1255       O  0.77925169  0.14233969  0.82782279    -0.76800
C1256       C  0.76096478  0.00572918  0.74400427     0.85200
O1257       O  0.79605647  0.22684522  0.76916883    -0.76900
C1258       C  0.81393491  0.11723112  0.63904810     0.85300
C1259       C  0.87376946  0.07149313  0.73198568     0.85700
O1260       O  0.86714416  0.11320988  0.72217808    -0.79300
N1261       N  0.67456848  0.18270487  0.51538925    -0.01800
C1262       C  0.65237024  0.16493897  0.53485157     0.00800
C1263       C  0.66278495  0.14053462  0.56531630    -0.22100
C1264       C  0.69176598  0.14081891  0.56350014    -0.22300
C1265       C  0.69834096  0.16554326  0.53220859     0.00700
H1266       H  0.65049231  0.11977345  0.58439901     0.14500
H1267       H  0.70630576  0.12190326  0.58129912     0.14500
N1268       N  0.67711077  0.17687328  0.72321770    -0.01800
C1269       C  0.65190029  0.15842401  0.70923185     0.00800
C1270       C  0.65697423  0.12311208  0.68187501    -0.22100
C1271       C  0.68578790  0.11851884  0.67932765    -0.22300
C1272       C  0.69756815  0.15104927  0.70535201     0.00700
H1273       H  0.64131947  0.09955860  0.66812461     0.14500
H1274       H  0.69684338  0.09181293  0.66247157     0.14500
O1275       O  0.69160599  0.31557050  0.91194851    -0.76800
C1276       C  0.77134164  0.31501482  0.98042937     0.84300
O1277       O  0.66298894  0.26284776  0.52530707    -0.77900
O1278       O  0.72393697  0.36288535  0.58933913    -0.79400
O1279       O  0.71603268  0.46792746  0.98115207    -0.79200
O1280       O  0.69193310  0.39488960  0.91387144    -0.77800
Zn1281     Zn  0.70796467  0.30579929  0.96331536     1.55700
O1282       O  0.74757844  0.43767693  0.52104888    -0.79200
Cd1283     Cd  0.68727553  0.41215125  0.97038318     1.59700
Cd1284     Cd  0.66767802  0.33667442  0.53202748     1.59600
O1285       O  0.64337085  0.42547156  0.97497231    -0.79200
O1286       O  0.69886960  0.35618534  0.99945899    -1.89700
Cd1287     Cd  0.73296686  0.36978368  0.53201023     1.59900
O1288       O  0.63103178  0.36732606  0.51292020    -0.79200
O1289       O  0.76719086  0.32859905  0.51450848    -0.77800
C1290       C  0.67625574  0.23147490  0.00517469     0.84700
C1291       C  0.69075251  0.35489435  0.89561072     0.84400
O1292       O  0.75065071  0.30691029  0.95739635    -0.76800
C1293       C  0.73948821  0.47049560  0.99988221     0.85200
O1294       O  0.69425638  0.24298998  0.98067418    -0.76900
C1295       C  0.62462629  0.39970749  0.99035239     0.85300
C1296       C  0.70040747  0.35942640  0.60671454     0.85700
O1297       O  0.67663695  0.35378663  0.58904361    -0.79300
O1298       O  0.71864931  0.33464578  0.66539107    -0.76800
C1299       C  0.77265136  0.32196125  0.77469599     0.84300
O1300       O  0.66471225  0.24897186  0.75556989    -0.77900
O1301       O  0.70176361  0.39022986  0.83936977    -0.79400
O1302       O  0.71732604  0.46291388  0.72921889    -0.79200
O1303       O  0.68324561  0.38776170  0.66649929    -0.77800
Zn1304     Zn  0.72214930  0.31306879  0.71993583     1.55700
O1305       O  0.74486116  0.43981411  0.77655317    -0.79200
Cd1306     Cd  0.68441032  0.40961307  0.72407985     1.59700
Cd1307     Cd  0.67060172  0.31862991  0.77790125     1.59600
O1308       O  0.64345414  0.42722103  0.74847370    -0.79200
O1309       O  0.69945387  0.35418069  0.75052875    -1.89700
Cd1310     Cd  0.72382329  0.38020815  0.79118949     1.59900
O1311       O  0.63480037  0.35915956  0.77731315    -0.79200
O1312       O  0.75590420  0.33469398  0.80077312    -0.77800
C1313       C  0.68227183  0.22621769  0.73470868     0.84700
C1314       C  0.70080508  0.36090767  0.64843443     0.84400
O1315       O  0.76367845  0.31420172  0.74075469    -0.76800
C1316       C  0.73983473  0.46760161  0.75018580     0.85200
O1317       O  0.70434301  0.24688948  0.72196731    -0.76900
C1318       C  0.62747173  0.40101541  0.76853938     0.85300
C1319       C  0.69080269  0.35453911  0.85463848     0.85700
O1320       O  0.68180671  0.31814122  0.83501816    -0.79300
N1321       N  0.92442336  0.04564135  0.99035280    -0.01800
C1322       C  0.90133292  0.05836504  0.96918842     0.00800
C1323       C  0.91000506  0.07932238  0.93657802    -0.22100
C1324       C  0.93868699  0.08396223  0.93878199    -0.22300
C1325       C  0.94675205  0.06468756  0.97212455     0.00700
H1326       H  0.89650668  0.09545198  0.91576203     0.14500
H1327       H  0.95215658  0.10160932  0.91910543     0.14500
N1328       N  0.92422163  0.03936090  0.73637560    -0.01800
C1329       C  0.90122007  0.05389397  0.71606004     0.00800
C1330       C  0.91035998  0.07414466  0.68332514    -0.22100
C1331       C  0.93932691  0.07659119  0.68508093    -0.22300
C1332       C  0.94719674  0.05704538  0.71840410     0.00700
H1333       H  0.89720645  0.09150862  0.66282670     0.14500
H1334       H  0.95304100  0.09394593  0.66555355     0.14500
O1335       O  0.96206641  0.39941482  0.58427636    -0.76800
C1336       C  0.51956416  0.40602092  0.98092127     0.84300
O1337       O  0.91057197  0.46635604  0.98588100    -0.74700
O1338       O  0.95388132  0.33093037  0.90973271    -0.79400
O1339       O  0.96531104  0.25881890  0.51618187    -0.79200
O1340       O  0.93367039  0.33429038  0.58204850    -0.77800
Zn1341     Zn  0.96768256  0.41786425  0.52951204     1.55700
O1342       O  0.99636832  0.28953908  0.97658993    -0.79200
Cd1343     Cd  0.93279481  0.31299220  0.52390781     1.59700
Cd1344     Cd  0.92098624  0.40018775  0.96662902     1.59600
O1345       O  0.88959685  0.29847795  0.50076790    -0.79200
O1346       O  0.94813790  0.36954382  0.99892325    -1.89700
Cd1347     Cd  0.97383145  0.34614894  0.96011862     1.59900
O1348       O  0.88597440  0.36122095  0.96479409    -0.79200
O1349       O  0.50260090  0.39845043  0.95332214    -0.77800
C1350       C  0.92784330  0.49689889  0.00063643     0.84700
C1351       C  0.94774803  0.36732157  0.60060687     0.84400
O1352       O  0.51014570  0.41388391  0.51426425    -0.76800
C1353       C  0.98934181  0.25735336  0.99858696     0.85200
O1354       O  0.95049858  0.48400232  0.51778379    -0.76900
C1355       C  0.87559199  0.32357670  0.97747022     0.85300
C1356       C  0.94318723  0.36548345  0.89282207     0.85700
O1357       O  0.93369178  0.40174703  0.91112447    -0.79300
O1358       O  0.94500477  0.40436884  0.83597703    -0.76800
C1359       C  0.52424969  0.41291846  0.76943523     0.84300
O1360       O  0.91303442  0.45852533  0.72592043    -0.77900
O1361       O  0.97245531  0.36837777  0.65946349    -0.79400
O1362       O  0.96894717  0.25768449  0.76381751    -0.79200
O1363       O  0.94513154  0.32499988  0.83357776    -0.77800
Zn1364     Zn  0.96075278  0.41695773  0.78576154     1.55700
O1365       O  0.99861273  0.29117230  0.72353377    -0.79200
Cd1366     Cd  0.93995492  0.30993099  0.77658814     1.59700
Cd1367     Cd  0.91708708  0.38482426  0.71789168     1.59600
O1368       O  0.89663909  0.29121125  0.77145046    -0.79200
O1369       O  0.95022708  0.36764711  0.74898006    -1.89700
Cd1370     Cd  0.98394170  0.35925312  0.71606160     1.59900
O1371       O  0.88080200  0.35210249  0.73870906    -0.79200
O1372       O  0.51940722  0.40012879  0.73504786    -0.77800
C1373       C  0.92682939  0.49038730  0.74584123     0.84700
C1374       C  0.94391970  0.36482575  0.85195775     0.84400
O1375       O  0.50392577  0.41836014  0.79252329    -0.76800
C1376       C  0.99137465  0.25702663  0.74404622     0.85200
O1377       O  0.94601541  0.47953228  0.76960228    -0.76900
C1378       C  0.87636779  0.31696365  0.75972127     0.85300
C1379       C  0.94826538  0.36815252  0.64235817     0.85700
O1380       O  0.92481747  0.36917442  0.66027693    -0.79300
N1381       N  0.57241919  0.42296454  0.98424647    -0.01800
C1382       C  0.59548980  0.39627516  0.97478588     0.00800
C1383       C  0.58674238  0.35258588  0.95881817    -0.22100
C1384       C  0.55775170  0.35198503  0.95835672    -0.22300
C1385       C  0.54959600  0.39504235  0.97446323     0.00700
H1386       H  0.60017793  0.32283647  0.95082345     0.14500
H1387       H  0.54410500  0.32250880  0.94864458     0.14500
N1388       N  0.57704733  0.43335850  0.76645576    -0.01800
C1389       C  0.60017867  0.41754129  0.78575589     0.00800
C1390       C  0.59111054  0.39497149  0.81756914    -0.22100
C1391       C  0.56206221  0.39326657  0.81631276    -0.22300
C1392       C  0.55400740  0.41547399  0.78418403     0.00700
H1393       H  0.60431384  0.37575413  0.83697494     0.14500
H1394       H  0.54843837  0.37432679  0.83502549     0.14500
O1395       O  0.99516960  0.06053955  0.95899323    -0.76800
C1396       C  0.55802433  0.11524249  0.89383693     0.84300
O1397       O  0.58628050  0.99819083  0.51067432    -0.77900
O1398       O  0.60783171  0.17832295  0.99960399    -0.79400
O1399       O  0.00136854  0.18299665  0.52222856    -0.79200
O1400       O  0.98327368  0.07451742  0.51857355    -0.77800
Zn1401     Zn  0.53715104  0.05954636  0.95933119     1.55700
O1402       O  0.53301239  0.21592863  0.98443141    -0.79200
Cd1403     Cd  0.51815332  0.11767790  0.53095829     1.59700
Cd1404     Cd  0.57959480  0.06940735  0.52742271     1.59600
O1405       O  0.53057258  0.11631811  0.58601110    -0.79200
O1406       O  0.55094746  0.10353082  0.99719256    -1.89700
Cd1407     Cd  0.56580133  0.16340214  0.97453511     1.59900
O1408       O  0.56916511  0.07063570  0.58369673    -0.79200
O1409       O  0.56753657  0.15080122  0.91445944    -0.77800
C1410       C  0.57033193  0.97398203  0.98792446     0.84700
C1411       C  0.97657157  0.06488640  0.98431627     0.84400
O1412       O  0.54704943  0.07883971  0.90812770    -0.76800
C1413       C  0.50925388  0.21689762  0.00224697     0.85200
O1414       O  0.55113105  0.99383553  0.96846707    -0.76900
C1415       C  0.55054287  0.09421023  0.60195207     0.85300
C1416       C  0.62379271  0.15074233  0.51873066     0.85700
O1417       O  0.61575357  0.10906223  0.52706843    -0.79300
O1418       O  0.99682091  0.05094570  0.70867748    -0.76800
C1419       C  0.55207564  0.09705503  0.64268909     0.84300
O1420       O  0.58987099  0.01451486  0.77209883    -0.77900
O1421       O  0.60314356  0.17727837  0.71507485    -0.79400
O1422       O  0.50329477  0.18308457  0.76798676    -0.79200
O1423       O  0.98293666  0.07414677  0.76591597    -0.77800
Zn1424     Zn  0.53993907  0.05194200  0.71284734     1.55700
O1425       O  0.53187650  0.21365703  0.72524546    -0.79200
Cd1426     Cd  0.51883346  0.11704783  0.77977963     1.59700
Cd1427     Cd  0.58607212  0.08948067  0.77623609     1.59600
O1428       O  0.53279397  0.11601279  0.83596460    -0.79200
O1429       O  0.55158666  0.10439655  0.74617605    -1.89700
Cd1430     Cd  0.55979614  0.15898916  0.71428432     1.59900
O1431       O  0.58027563  0.10998161  0.83365345    -0.79200
O1432       O  0.55086664  0.13799330  0.65927656    -0.77800
C1433       C  0.57476904  0.98166763  0.75501713     0.84700
C1434       C  0.97714617  0.05892130  0.73231148     0.84400
O1435       O  0.55359068  0.05895826  0.66056165    -0.76800
C1436       C  0.50987485  0.21567749  0.74573571     0.85200
O1437       O  0.55477767  0.99136842  0.73210885    -0.76900
C1438       C  0.55730678  0.11540228  0.85221879     0.85300
C1439       C  0.62442610  0.15552615  0.72877932     0.85700
O1440       O  0.62144877  0.12256511  0.75232929    -0.79300
N1441       N  0.82370250  0.79724255  0.48256000    -0.01800
C1442       C  0.84603202  0.81329125  0.46261661     0.00800
C1443       C  0.83615873  0.83790285  0.93202844    -0.22100
C1444       C  0.80726056  0.83951888  0.93427727    -0.22300
C1445       C  0.80043811  0.81536991  0.96574982     0.00700
H1446       H  0.84871887  0.85721679  0.91233514     0.14500
H1447       H  0.79297931  0.85877351  0.91638889     0.14500
N1448       N  0.82372265  0.79622511  0.26710556    -0.01800
C1449       C  0.84896853  0.81625721  0.27934406     0.00800
C1450       C  0.84399649  0.85403482  0.30461667    -0.22100
C1451       C  0.81519897  0.85828104  0.30766705    -0.22300
C1452       C  0.80335194  0.82317937  0.28394101     0.00700
H1453       H  0.85966184  0.87892593  0.31665360     0.14500
H1454       H  0.80413455  0.88620334  0.32322475     0.14500
O1455       O  0.74850522  0.67157604  0.04019547    -0.76800
C1456       C  0.81392611  0.61884115  0.09800105     0.84300
O1457       O  0.83360410  0.71771075  0.47015794    -0.77900
O1458       O  0.85550571  0.54559904  0.99899039    -0.79400
O1459       O  0.74950737  0.54573101  0.47546072    -0.79200
O1460       O  0.73126884  0.65561368  0.48240221    -0.77800
Zn1461     Zn  0.79118827  0.67227951  0.03335244     1.55700
O1462       O  0.78242097  0.51361923  0.01306689    -0.79200
Cd1463     Cd  0.76470660  0.61275403  0.46374354     1.59700
Cd1464     Cd  0.82911774  0.64560864  0.46285125     1.59600
O1465       O  0.77296733  0.61757616  0.40560199    -0.79200
O1466       O  0.79965870  0.62356492  0.49590205    -1.89700
Cd1467     Cd  0.81447377  0.56538377  0.02019310     1.59900
O1468       O  0.82005619  0.62800503  0.40602442    -0.79200
O1469       O  0.81663358  0.58026046  0.07807144    -0.77800
C1470       C  0.82165192  0.74844571  0.49186478     0.84700
C1471       C  0.72747533  0.66627411  0.51716813     0.84400
O1472       O  0.80788655  0.65832141  0.08368402    -0.76800
C1473       C  0.75806079  0.51240843  0.49605748     0.85200
O1474       O  0.80475957  0.73639371  0.01739151    -0.76900
C1475       C  0.79652050  0.62082000  0.38820531     0.85300
C1476       C  0.87321145  0.57382084  0.48401410     0.85700
O1477       O  0.86664594  0.61618513  0.47639802    -0.79300
O1478       O  0.73674222  0.66004644  0.24950305    -0.76800
C1479       C  0.79671528  0.61701112  0.34636181     0.84300
O1480       O  0.83680511  0.72280587  0.23791308    -0.77900
O1481       O  0.85678368  0.54585804  0.25110772    -0.79400
O1482       O  0.75711554  0.53151021  0.21600150    -0.79200
O1483       O  0.74510247  0.63530196  0.19041760    -0.77800
Zn1484     Zn  0.77771560  0.66110065  0.27213995     1.55700
O1485       O  0.78239060  0.51204732  0.26661821    -0.79200
Cd1486     Cd  0.77810763  0.59141348  0.20113069     1.59700
Cd1487     Cd  0.83145491  0.65287197  0.21731383     1.59600
O1488       O  0.80162866  0.58177112  0.15328326    -0.79200
O1489       O  0.80105578  0.61877524  0.24314687    -1.89700
Cd1490     Cd  0.81517947  0.56511313  0.27252841     1.59900
O1491       O  0.82312241  0.65253552  0.15945345    -0.79200
O1492       O  0.81465714  0.58940637  0.32972196    -0.77800
C1493       C  0.81864646  0.74657382  0.25694818     0.84700
C1494       C  0.72817434  0.65055170  0.21559769     0.84400
O1495       O  0.77931446  0.64234050  0.32781554    -0.76800
C1496       C  0.76093322  0.50568974  0.24398592     0.85200
O1497       O  0.79606948  0.72676760  0.26907183    -0.76900
C1498       C  0.81395592  0.61703091  0.13898734     0.85300
C1499       C  0.87376331  0.57136106  0.23188690     0.85700
O1500       O  0.86714905  0.61308978  0.22209681    -0.79300
N1501       N  0.67470213  0.68272237  0.01531532    -0.01800
C1502       C  0.65249452  0.66498693  0.03477637     0.00800
C1503       C  0.66289193  0.64064054  0.06527988    -0.22100
C1504       C  0.69187337  0.64091920  0.06349070    -0.22300
C1505       C  0.69846417  0.66558151  0.03217457     0.00700
H1506       H  0.65058811  0.61991674  0.08437547     0.14500
H1507       H  0.70640263  0.62202943  0.08132103     0.14500
N1508       N  0.67714017  0.67676530  0.22325453    -0.01800
C1509       C  0.65192590  0.65825241  0.20933747     0.00800
C1510       C  0.65699181  0.62291550  0.18199799    -0.22100
C1511       C  0.68580614  0.61837795  0.17939015    -0.22300
C1512       C  0.69759360  0.65095762  0.20536912     0.00700
H1513       H  0.64133658  0.59932292  0.16829344     0.14500
H1514       H  0.69686058  0.59167097  0.16253440     0.14500
O1515       O  0.69141554  0.81548328  0.41191887    -0.76800
C1516       C  0.77116409  0.81500973  0.48037499     0.84300
O1517       O  0.66311370  0.76285099  0.02524772    -0.77900
O1518       O  0.72403606  0.86275912  0.08939166    -0.79400
O1519       O  0.71592146  0.96796981  0.48106368    -0.79200
O1520       O  0.69188806  0.89480155  0.41381260    -0.77800
Zn1521     Zn  0.70779052  0.80574278  0.46328996     1.55700
O1522       O  0.74769909  0.93761186  0.02113909    -0.79200
Cd1523     Cd  0.68717879  0.91212959  0.47029897     1.59700
Cd1524     Cd  0.66779792  0.83665390  0.03202793     1.59600
O1525       O  0.64326021  0.92537232  0.47481312    -0.79200
O1526       O  0.69873463  0.85618053  0.49942054    -1.89700
Cd1527     Cd  0.73310342  0.86971265  0.03207665     1.59900
O1528       O  0.63114480  0.86730380  0.01295769    -0.79200
O1529       O  0.76736520  0.82858401  0.01456710    -0.77800
C1530       C  0.67611155  0.73145112  0.50523231     0.84700
C1531       C  0.69064711  0.85480150  0.39556498     0.84400
O1532       O  0.75047349  0.80686159  0.45734802    -0.76800
C1533       C  0.73937361  0.97055719  0.49980562     0.85200
O1534       O  0.69408738  0.74294505  0.48069427    -0.76900
C1535       C  0.62451562  0.89966205  0.49024964     0.85300
C1536       C  0.70049196  0.85931357  0.10673731     0.85700
O1537       O  0.67673097  0.85371064  0.08904244    -0.79300
O1538       O  0.71869412  0.83453331  0.16542610    -0.76800
C1539       C  0.77269049  0.82193480  0.27468533     0.84300
O1540       O  0.66470433  0.74888059  0.25554068    -0.77900
O1541       O  0.70172508  0.89011510  0.33934692    -0.79400
O1542       O  0.71731269  0.96282824  0.22917008    -0.79200
O1543       O  0.68327211  0.88761748  0.16649138    -0.77800
Zn1544     Zn  0.72216603  0.81297083  0.21996292     1.55700
O1545       O  0.74480377  0.93982619  0.27657758    -0.79200
Cd1546     Cd  0.68441368  0.90950579  0.22405792     1.59700
Cd1547     Cd  0.67057362  0.81853942  0.27783802     1.59600
O1548       O  0.64346477  0.92712121  0.24846730    -0.79200
O1549       O  0.69946192  0.85409570  0.25052449    -1.89700
Cd1550     Cd  0.72381431  0.88016372  0.29118889     1.59900
O1551       O  0.63475147  0.85900092  0.27719669    -0.79200
O1552       O  0.75597086  0.83477818  0.30076673    -0.77800
C1553       C  0.68228696  0.72611745  0.23472571     0.84700
C1554       C  0.70085530  0.86078262  0.14845102     0.84400
O1555       O  0.76369034  0.81410091  0.24076621    -0.76800
C1556       C  0.73979850  0.96756618  0.25017301     0.85200
O1557       O  0.70436672  0.74678824  0.22200722    -0.76900
C1558       C  0.62745811  0.90089491  0.26848477     0.85300
C1559       C  0.69072955  0.85443810  0.35459529     0.85700
O1560       O  0.68172325  0.81805690  0.33496485    -0.79300
N1561       N  0.92432029  0.54580329  0.49045663    -0.01800
C1562       C  0.90121817  0.55860884  0.46934648     0.00800
C1563       C  0.90987185  0.57962871  0.43675506    -0.22100
C1564       C  0.93855960  0.58418942  0.43890418    -0.22300
C1565       C  0.94664296  0.56482862  0.47220496     0.00700
H1566       H  0.89636339  0.59583229  0.41598865     0.14500
H1567       H  0.95202282  0.60184352  0.41922435     0.14500
N1568       N  0.92421122  0.53922223  0.23624768    -0.01800
C1569       C  0.90120504  0.55374354  0.21593711     0.00800
C1570       C  0.91034614  0.57402355  0.18321189    -0.22100
C1571       C  0.93931460  0.57650721  0.18498224    -0.22300
C1572       C  0.94718560  0.55694509  0.21829972     0.00700
H1573       H  0.89719077  0.59139395  0.16271910     0.14500
H1574       H  0.95302607  0.59389328  0.16546920     0.14500
O1575       O  0.96220306  0.89933252  0.08427571    -0.76800
C1576       C  0.51944585  0.90600697  0.48091711     0.84300
O1577       O  0.91045640  0.96652557  0.48589900    -0.74700
O1578       O  0.95370827  0.83104184  0.40974856    -0.79400
O1579       O  0.96544994  0.75876957  0.01617109    -0.79200
O1580       O  0.93382530  0.83418428  0.08202356    -0.77800
Zn1581     Zn  0.96780764  0.91779167  0.02950717     1.55700
O1582       O  0.99620283  0.78954146  0.47654676    -0.79200
Cd1583     Cd  0.93294263  0.81290692  0.02389302     1.59700
Cd1584     Cd  0.92083396  0.90033086  0.46664641     1.59600
O1585       O  0.88975745  0.79834094  0.00076092    -0.79200
O1586       O  0.94799158  0.86963687  0.49892844    -1.89700
Cd1587     Cd  0.97367779  0.84620333  0.46012110     1.59900
O1588       O  0.88579591  0.86141007  0.46485049    -0.79200
O1589       O  0.50247960  0.89845407  0.45331948    -0.77800
C1590       C  0.92773122  0.99703816  0.50068769     0.84700
C1591       C  0.94789482  0.86721341  0.10059219     0.84400
O1592       O  0.51026550  0.91387390  0.01427202    -0.76800
C1593       C  0.98919255  0.75737186  0.49856667     0.85200
O1594       O  0.95061563  0.98390159  0.01773815    -0.76900
C1595       C  0.87541963  0.82374868  0.47750957     0.85300
C1596       C  0.94303004  0.86559870  0.39282694     0.85700
O1597       O  0.93352854  0.90186838  0.41111929    -0.79300
O1598       O  0.94495285  0.90443181  0.33595315    -0.76800
C1599       C  0.52426838  0.91274898  0.26950151     0.84300
O1600       O  0.91305129  0.95837199  0.22580748    -0.77900
O1601       O  0.97256763  0.86821966  0.15947783    -0.79400
O1602       O  0.96899326  0.75760166  0.26400629    -0.79200
O1603       O  0.94500367  0.82506189  0.33361335    -0.77800
Zn1604     Zn  0.96075598  0.91689128  0.28573239     1.55700
O1605       O  0.99860319  0.79094146  0.22357942    -0.79200
Cd1606     Cd  0.93995979  0.80985343  0.27662448     1.59700
Cd1607     Cd  0.91714016  0.88466813  0.21781365     1.59600
O1608       O  0.89666763  0.79105727  0.27133879    -0.79200
O1609       O  0.95025195  0.86752204  0.24897464    -1.89700
Cd1610     Cd  0.98397925  0.85903844  0.21609448     1.59900
O1611       O  0.88083793  0.85191553  0.23855184    -0.79200
O1612       O  0.51944976  0.89983114  0.23513563    -0.77800
C1613       C  0.92683846  0.99025403  0.24571783     0.84700
C1614       C  0.94380168  0.86491244  0.35196120     0.84400
O1615       O  0.50393120  0.91829738  0.29255744    -0.76800
C1616       C  0.99139103  0.75686739  0.24417648     0.85200
O1617       O  0.94602617  0.97942581  0.26948462    -0.76900
C1618       C  0.87639868  0.81678608  0.25957155     0.85300
C1619       C  0.94839152  0.86801828  0.14233966     0.85700
O1620       O  0.92492997  0.86902947  0.16022380    -0.79300
N1621       N  0.57230785  0.92292485  0.48416160    -0.01800
C1622       C  0.59537128  0.89621118  0.47470877     0.00800
C1623       C  0.58660800  0.85248880  0.45881675    -0.22100
C1624       C  0.55761569  0.85189262  0.45840040    -0.22300
C1625       C  0.54947445  0.89498962  0.47445509     0.00700
H1626       H  0.60003423  0.82271777  0.45084970     0.14500
H1627       H  0.54396322  0.82240327  0.44875002     0.14500
N1628       N  0.57704057  0.93323436  0.26646899    -0.01800
C1629       C  0.60019010  0.91745236  0.28574541     0.00800
C1630       C  0.59115620  0.89493353  0.31759908    -0.22100
C1631       C  0.56210557  0.89322659  0.31639454    -0.22300
C1632       C  0.55402089  0.91537935  0.28425244     0.00700
H1633       H  0.60438152  0.87574171  0.33699622     0.14500
H1634       H  0.54850133  0.87430405  0.33514277     0.14500
O1635       O  0.99504799  0.56059677  0.45900208    -0.76800
C1636       C  0.55797309  0.61518766  0.39386584     0.84300
O1637       O  0.58637551  0.49823732  0.01076293    -0.77900
O1638       O  0.60771068  0.67829917  0.49969094    -0.79400
O1639       O  0.00149384  0.68298019  0.02223820    -0.79200
O1640       O  0.98334504  0.57452840  0.01854850    -0.77800
Zn1641     Zn  0.53703118  0.55953844  0.45933782     1.55700
O1642       O  0.53287426  0.71592632  0.48440007    -0.79200
Cd1643     Cd  0.51824800  0.61765233  0.03097233     1.59700
Cd1644     Cd  0.57971403  0.56947865  0.02744577     1.59600
O1645       O  0.53064789  0.61628549  0.08604569    -0.79200
O1646       O  0.55084591  0.60351459  0.49718695    -1.89700
Cd1647     Cd  0.56569870  0.66339740  0.47455163     1.59900
O1648       O  0.56931713  0.57078720  0.08373102    -0.79200
O1649       O  0.56750872  0.65073897  0.41448008    -0.77800
C1650       C  0.57022207  0.47394135  0.48784928     0.84700
C1651       C  0.97646963  0.56494518  0.48435061     0.84400
O1652       O  0.54694683  0.57883479  0.40816183    -0.76800
C1653       C  0.50911687  0.71690875  0.50222573     0.85200
O1654       O  0.55100210  0.49380354  0.46842976    -0.76900
C1655       C  0.55065615  0.59426756  0.10198788     0.85300
C1656       C  0.62391926  0.65077838  0.01865521     0.85700
O1657       O  0.61587759  0.60911232  0.02702358    -0.79300
O1658       O  0.99682083  0.55086417  0.20861269    -0.76800
C1659       C  0.55217442  0.59706690  0.14272851     0.84300
O1660       O  0.58981830  0.51439222  0.27217293    -0.77900
O1661       O  0.60319760  0.67727640  0.21531398    -0.79400
O1662       O  0.50329357  0.68289886  0.26809739    -0.79200
O1663       O  0.98290868  0.57399482  0.26585201    -0.77800
Zn1664     Zn  0.53994488  0.55183521  0.21283802     1.55700
O1665       O  0.53189087  0.71350156  0.22538588    -0.79200
Cd1666     Cd  0.51882033  0.61683615  0.27979796     1.59700
Cd1667     Cd  0.58605925  0.58934732  0.27629943     1.59600
O1668       O  0.53276575  0.61577628  0.33597952    -0.79200
O1669       O  0.55159287  0.60425462  0.24620837    -1.89700
Cd1670     Cd  0.55985436  0.65890725  0.21440529     1.59900
O1671       O  0.58025834  0.60995130  0.33369937    -0.79200
O1672       O  0.55102017  0.63799357  0.15934871    -0.77800
C1673       C  0.57474911  0.48154197  0.25504233     0.84700
C1674       C  0.97713256  0.55881994  0.23222987     0.84400
O1675       O  0.55360695  0.55893227  0.16056658    -0.76800
C1676       C  0.50988505  0.71550982  0.24587032     0.85200
O1677       O  0.55478185  0.49123191  0.23209020    -0.76900
C1678       C  0.55727608  0.61529406  0.35224815     0.85300
C1679       C  0.62446325  0.65538607  0.22892005     0.85700
O1680       O  0.62145958  0.62233003  0.25238072    -0.79300
N1681       N  0.82387274  0.79712304  0.98255050    -0.01800
C1682       C  0.84620076  0.81312183  0.96257813     0.00800
C1683       C  0.83598950  0.83804292  0.43205161    -0.22100
C1684       C  0.80708518  0.83955504  0.43424409    -0.22300
C1685       C  0.80026257  0.81539243  0.46570818     0.00700
H1686       H  0.84854759  0.85738508  0.41237286     0.14500
H1687       H  0.79279606  0.85876105  0.41632834     0.14500
N1688       N  0.82370498  0.79631922  0.76724644    -0.01800
C1689       C  0.84893199  0.81643060  0.77947933     0.00800
C1690       C  0.84391240  0.85428134  0.80466795    -0.22100
C1691       C  0.81510813  0.85848835  0.80766293    -0.22300
C1692       C  0.80330389  0.82328888  0.78399246     0.00700
H1693       H  0.85955025  0.87924612  0.81667103     0.14500
H1694       H  0.80401135  0.88644380  0.82313958     0.14500
O1695       O  0.74838665  0.67164167  0.54025422    -0.76800
C1696       C  0.81386820  0.61905880  0.59807132     0.84300
O1697       O  0.83374542  0.71757960  0.97011647    -0.77900
O1698       O  0.85537060  0.54576085  0.49904871    -0.79400
O1699       O  0.74959743  0.54562882  0.97552643    -0.79200
O1700       O  0.73137120  0.65553298  0.98235951    -0.77800
Zn1701     Zn  0.79107325  0.67242461  0.53342462     1.55700
O1702       O  0.78227315  0.51377830  0.51311700    -0.79200
Cd1703     Cd  0.76478379  0.61262012  0.96373529     1.59700
Cd1704     Cd  0.82918261  0.64549629  0.96274603     1.59600
O1705       O  0.77296697  0.61743608  0.90559258    -0.79200
O1706       O  0.79976460  0.62341575  0.99583710    -1.89700
Cd1707     Cd  0.81434467  0.56554073  0.52026836     1.59900
O1708       O  0.82003863  0.62805367  0.90595017    -0.79200
O1709       O  0.81655192  0.58047390  0.57813894    -0.77800
C1710       C  0.82179294  0.74831354  0.99182403     0.84700
C1711       C  0.72758857  0.66623725  0.01711710     0.84400
O1712       O  0.80780266  0.65853219  0.58376108    -0.76800
C1713       C  0.75818017  0.51229010  0.99608569     0.85200
O1714       O  0.80462996  0.73653204  0.51744777    -0.76900
C1715       C  0.79649779  0.62080267  0.88816933     0.85300
C1716       C  0.87330200  0.57359516  0.98380143     0.85700
O1717       O  0.86669495  0.61588576  0.97602437    -0.79300
O1718       O  0.73671227  0.66015150  0.74949431    -0.76800
C1719       C  0.79667452  0.61703515  0.84634125     0.84300
O1720       O  0.83682097  0.72290605  0.73807079    -0.77900
O1721       O  0.85678902  0.54596932  0.75118985    -0.79400
O1722       O  0.75716218  0.53152360  0.71600306    -0.79200
O1723       O  0.74507388  0.63528171  0.69043770    -0.77800
Zn1724     Zn  0.77768110  0.66117538  0.77216714     1.55700
O1725       O  0.78240460  0.51212040  0.76666018    -0.79200
Cd1726     Cd  0.77811775  0.59148051  0.70116683     1.59700
Cd1727     Cd  0.83145529  0.65300323  0.71739801     1.59600
O1728       O  0.80166760  0.58192556  0.65335031    -0.79200
O1729       O  0.80104180  0.61887825  0.74318296    -1.89700
Cd1730     Cd  0.81517349  0.56521010  0.77254347     1.59900
O1731       O  0.82310252  0.65274050  0.65953369    -0.79200
O1732       O  0.81464777  0.58950386  0.82969753    -0.77800
C1733       C  0.81864861  0.74666088  0.75709106     0.84700
C1734       C  0.72814719  0.65060264  0.71559496     0.84400
O1735       O  0.77924487  0.64233197  0.82781421    -0.76800
C1736       C  0.76096563  0.50572771  0.74400480     0.85200
O1737       O  0.79605866  0.72684529  0.76917103    -0.76900
C1738       C  0.81394594  0.61723333  0.63905820     0.85300
C1739       C  0.87377041  0.57148498  0.73198612     0.85700
O1740       O  0.86714594  0.61320301  0.72218074    -0.79300
N1741       N  0.67457593  0.68268736  0.51540017    -0.01800
C1742       C  0.65237689  0.66491693  0.53485863     0.00800
C1743       C  0.66279110  0.64051070  0.56532281    -0.22100
C1744       C  0.69177281  0.64080561  0.56351357    -0.22300
C1745       C  0.69834907  0.66553519  0.53222494     0.00700
H1746       H  0.65049831  0.61974761  0.58440402     0.14500
H1747       H  0.70631274  0.62189532  0.58131604     0.14500
N1748       N  0.67711218  0.67686656  0.72321321    -0.01800
C1749       C  0.65190116  0.65842766  0.70921991     0.00800
C1750       C  0.65697431  0.62312811  0.68185269    -0.22100
C1751       C  0.68578796  0.61853143  0.67930602    -0.22300
C1752       C  0.69756908  0.65104766  0.70534097     0.00700
H1753       H  0.64131878  0.59958371  0.66809380     0.14500
H1754       H  0.69684256  0.59183242  0.66244201     0.14500
O1755       O  0.69159577  0.81559653  0.91195823    -0.76800
C1756       C  0.77133808  0.81503015  0.98042650     0.84300
O1757       O  0.66299127  0.76282729  0.52530665    -0.77900
O1758       O  0.72393979  0.86286120  0.58933928    -0.79400
O1759       O  0.71603468  0.96795086  0.98116660    -0.79200
O1760       O  0.69193950  0.89491552  0.91387683    -0.77800
Zn1761     Zn  0.70795989  0.80582267  0.96332049     1.55700
O1762       O  0.74758086  0.93765289  0.52104659    -0.79200
Cd1763     Cd  0.68727702  0.91217651  0.97038972     1.59700
Cd1764     Cd  0.66768146  0.83665119  0.53202651     1.59600
O1765       O  0.64337156  0.92549654  0.97497484    -0.79200
O1766       O  0.69886759  0.85620800  0.99946473    -1.89700
Cd1767     Cd  0.73296897  0.86975980  0.53201005     1.59900
O1768       O  0.63103560  0.86730183  0.51291904    -0.79200
O1769       O  0.76719368  0.82857774  0.51451161    -0.77800
C1770       C  0.67625221  0.73149504  0.00517727     0.84700
C1771       C  0.69075130  0.85491895  0.89561790     0.84400
O1772       O  0.75064562  0.80693045  0.95739498    -0.76800
C1773       C  0.73949060  0.97051381  0.99989624     0.85200
O1774       O  0.69425271  0.74301165  0.98067720    -0.76900
C1775       C  0.62462515  0.89973231  0.99035151     0.85300
C1776       C  0.70041036  0.85940257  0.60671476     0.85700
O1777       O  0.67664000  0.85376197  0.58904351    -0.79300
O1778       O  0.71865247  0.83462844  0.66539333    -0.76800
C1779       C  0.77265132  0.82195372  0.77469803     0.84300
O1780       O  0.66471806  0.74896007  0.75557899    -0.77900
O1781       O  0.70177153  0.89023888  0.83937303    -0.79400
O1782       O  0.71732711  0.96290803  0.72921860    -0.79200
O1783       O  0.68324882  0.88774397  0.66649868    -0.77800
Zn1784     Zn  0.72215074  0.81305888  0.71993948     1.55700
O1785       O  0.74486651  0.93980754  0.77654856    -0.79200
Cd1786     Cd  0.68441264  0.90960283  0.72407904     1.59700
Cd1787     Cd  0.67060363  0.81862428  0.77790720     1.59600
O1788       O  0.64345570  0.92721107  0.74847217    -0.79200
O1789       O  0.69945572  0.85417363  0.75053248    -1.89700
Cd1790     Cd  0.72382733  0.88020455  0.79119046     1.59900
O1791       O  0.63479956  0.85914816  0.77730870    -0.79200
O1792       O  0.75590373  0.83468288  0.80077549    -0.77800
C1793       C  0.68227517  0.72620842  0.73471170     0.84700
C1794       C  0.70080793  0.86088774  0.64843502     0.84400
O1795       O  0.76367884  0.81419295  0.74075692    -0.76800
C1796       C  0.73983685  0.96759740  0.75018367     0.85200
O1797       O  0.70434499  0.74688176  0.72196877    -0.76900
C1798       C  0.62747198  0.90100508  0.76853606     0.85300
C1799       C  0.69080375  0.85455638  0.85464504     0.85700
O1800       O  0.68180365  0.81815765  0.83502830    -0.79300
N1801       N  0.92441499  0.54566084  0.99035725    -0.01800
C1802       C  0.90132699  0.55838928  0.96919022     0.00800
C1803       C  0.91000294  0.57935800  0.93658630    -0.22100
C1804       C  0.93868442  0.58399844  0.93879714    -0.22300
C1805       C  0.94674586  0.56471260  0.97213676     0.00700
H1806       H  0.89650702  0.59549189  0.91576974     0.14500
H1807       H  0.95215644  0.60164957  0.91912572     0.14500
N1808       N  0.92422187  0.53934809  0.73637387    -0.01800
C1809       C  0.90122082  0.55388537  0.71605934     0.00800
C1810       C  0.91036191  0.57414072  0.68332679    -0.22100
C1811       C  0.93932892  0.57658408  0.68508289    -0.22300
C1812       C  0.94719789  0.55703196  0.71840376     0.00700
H1813       H  0.89720930  0.59150982  0.66283021     0.14500
H1814       H  0.95304368  0.59394181  0.66555799     0.14500
O1815       O  0.96206041  0.89943913  0.58427692    -0.76800
C1816       C  0.51956241  0.90603575  0.98092963     0.84300
O1817       O  0.91057640  0.96633817  0.98588947    -0.74700
O1818       O  0.95387727  0.83092404  0.90972339    -0.79400
O1819       O  0.96531456  0.75882990  0.51618850    -0.79200
O1820       O  0.93367131  0.83430603  0.58204925    -0.77800
Zn1821     Zn  0.96767822  0.91788632  0.52951417     1.55700
O1822       O  0.99636316  0.78952333  0.97657734    -0.79200
Cd1823     Cd  0.93279866  0.81300504  0.52391117     1.59700
Cd1824     Cd  0.92098965  0.90017563  0.96662431     1.59600
O1825       O  0.88960245  0.79848481  0.50077253    -0.79200
O1826       O  0.94813954  0.86952821  0.99891765    -1.89700
Cd1827     Cd  0.97382962  0.84613450  0.96010851     1.59900
O1828       O  0.88597611  0.86120955  0.96478131    -0.79200
O1829       O  0.50260018  0.89846042  0.95333020    -0.77800
C1830       C  0.92785204  0.99688078  0.00063576     0.84700
C1831       C  0.94774495  0.86734216  0.60060688     0.84400
O1832       O  0.51015195  0.91386422  0.51426038    -0.76800
C1833       C  0.98933853  0.75734325  0.99858000     0.85200
O1834       O  0.95048899  0.98401964  0.51778540    -0.76900
C1835       C  0.87559006  0.82357004  0.97746120     0.85300
C1836       C  0.94319042  0.86548542  0.89281564     0.85700
O1837       O  0.93369995  0.90175013  0.91112164    -0.79300
O1838       O  0.94501237  0.90437734  0.83597306    -0.76800
C1839       C  0.52424901  0.91291050  0.76944366     0.84300
O1840       O  0.91303409  0.95853842  0.72592450    -0.77900
O1841       O  0.97245360  0.86838731  0.65946002    -0.79400
O1842       O  0.96894556  0.75768717  0.76381015    -0.79200
O1843       O  0.94513316  0.82500788  0.83356969    -0.77800
Zn1844     Zn  0.96075668  0.91696732  0.78575556     1.55700
O1845       O  0.99860946  0.79116777  0.72352098    -0.79200
Cd1846     Cd  0.93995511  0.80993822  0.77658107     1.59700
Cd1847     Cd  0.91708872  0.88483942  0.71789105     1.59600
O1848       O  0.89663785  0.79122279  0.77144652    -0.79200
O1849       O  0.95022905  0.86765551  0.74897533    -1.89700
Cd1850     Cd  0.98394155  0.85925287  0.71605453     1.59900
O1851       O  0.88080463  0.85211608  0.73870468    -0.79200
O1852       O  0.51940555  0.90012862  0.73505493    -0.77800
C1853       C  0.92683089  0.99040021  0.74584272     0.84700
C1854       C  0.94392429  0.86483280  0.85195153     0.84400
O1855       O  0.50392511  0.91834266  0.79253327    -0.76800
C1856       C  0.99137154  0.75702430  0.74403585     0.85200
O1857       O  0.94601978  0.97954473  0.76959965    -0.76900
C1858       C  0.87636810  0.81697776  0.75971632     0.85300
C1859       C  0.94826319  0.86817132  0.64235682     0.85700
O1860       O  0.92481591  0.86919795  0.66027639    -0.79300
N1861       N  0.57241714  0.92298251  0.98425730    -0.01800
C1862       C  0.59548910  0.89630480  0.97478175     0.00800
C1863       C  0.58674321  0.85262002  0.95880428    -0.22100
C1864       C  0.55775228  0.85201072  0.95835182    -0.22300
C1865       C  0.54959500  0.89505890  0.97447313     0.00700
H1866       H  0.60018036  0.82287737  0.95079784     0.14500
H1867       H  0.54410692  0.82253651  0.94863359     0.14500
N1868       N  0.57704719  0.93335165  0.76645857    -0.01800
C1869       C  0.60017988  0.91753309  0.78575537     0.00800
C1870       C  0.59111382  0.89496579  0.81757072    -0.22100
C1871       C  0.56206529  0.89326319  0.81631891    -0.22300
C1872       C  0.55400800  0.91546916  0.78419042     0.00700
H1873       H  0.60431833  0.87574851  0.83697518     0.14500
H1874       H  0.54844284  0.87432472  0.83503416     0.14500
O1875       O  0.99516250  0.56055112  0.95900358    -0.76800
C1876       C  0.55802905  0.61523626  0.89383402     0.84300
O1877       O  0.58627104  0.49820542  0.51068726    -0.77900
O1878       O  0.60782655  0.67832640  0.99960464    -0.79400
O1879       O  0.00137339  0.68300603  0.52223828    -0.79200
O1880       O  0.98327452  0.57452321  0.51856947    -0.77800
Zn1881     Zn  0.53715887  0.55953670  0.95932951     1.55700
O1882       O  0.53301274  0.71592312  0.98443033    -0.79200
Cd1883     Cd  0.51814667  0.61768467  0.53096002     1.59700
Cd1884     Cd  0.57958545  0.56941813  0.52743345     1.59600
O1885       O  0.53056013  0.61633258  0.58601406    -0.79200
O1886       O  0.55095456  0.60352148  0.99719117    -1.89700
Cd1887     Cd  0.56580125  0.66339656  0.97453219     1.59900
O1888       O  0.56914971  0.57064383  0.58370286    -0.79200
O1889       O  0.56753851  0.65079683  0.91445670    -0.77800
C1890       C  0.57033751  0.47396547  0.98791523     0.84700
C1891       C  0.97656546  0.56489759  0.98432775     0.84400
O1892       O  0.54705652  0.57883123  0.90812474    -0.76800
C1893       C  0.50925819  0.71689700  0.00225446     0.85200
O1894       O  0.55113541  0.49382231  0.96846240    -0.76900
C1895       C  0.55052795  0.59422079  0.60195632     0.85300
C1896       C  0.62379514  0.65073493  0.51874074     0.85700
O1897       O  0.61574730  0.60906310  0.52708662    -0.79300
O1898       O  0.99682244  0.55093406  0.70867948    -0.76800
C1899       C  0.55206063  0.59706448  0.64269227     0.84300
O1900       O  0.58987375  0.51452029  0.77208964    -0.77900
O1901       O  0.60314156  0.67726787  0.71505636    -0.79400
O1902       O  0.50329491  0.68308291  0.76798817    -0.79200
O1903       O  0.98293643  0.57413777  0.76591656    -0.77800
Zn1904     Zn  0.53993410  0.55194821  0.71284758     1.55700
O1905       O  0.53187846  0.71366199  0.72525191    -0.79200
Cd1906     Cd  0.51883288  0.61704738  0.77978029     1.59700
Cd1907     Cd  0.58607382  0.58948451  0.77622948     1.59600
O1908       O  0.53279674  0.61600996  0.83596356    -0.79200
O1909       O  0.55158505  0.60439932  0.74617520    -1.89700
Cd1910     Cd  0.55979224  0.65899101  0.71428314     1.59900
O1911       O  0.58027852  0.60997890  0.83364868    -0.79200
O1912       O  0.55084669  0.63800135  0.65928029    -0.77800
C1913       C  0.57476882  0.48167362  0.75501253     0.84700
C1914       C  0.97714700  0.55890875  0.73231268     0.84400
O1915       O  0.55358539  0.55896810  0.66056377    -0.76800
C1916       C  0.50987569  0.71567818  0.74573981     0.85200
O1917       O  0.55477433  0.49137470  0.73210866    -0.76900
C1918       C  0.55731025  0.61539801  0.85221585     0.85300
C1919       C  0.62442587  0.65552430  0.72876523     0.85700
O1920       O  0.62145069  0.62256994  0.75232138    -0.79300
loop_ 
_geom_bond_atom_site_label_1 
_geom_bond_atom_site_label_2 
_geom_bond_distance 
_geom_bond_site_symmetry_2 
_ccdc_geom_bond_type 
N1            C2   1.360       .  A
N1          C245   1.360       .  A
N1           C30   1.425       .  S
C2          C155   1.494       .  S
C2          C243   1.393       .  A
C3            C4   1.363       .  A
C3          C242   1.393       .  A
C3            H6   1.083       .  S
C4            C5   1.374       .  A
C4            H7   1.082       .  S
C5          N241   1.360       .  A
C5          C316   1.472       .  S
N8           C12   1.357       .  A
N8            C9   1.366       .  A
N8           C53   1.441       .  S
C9          C178   1.479       .  S
C9           C10   1.384       .  A
C10          C11   1.366       .  A
C10          H13   1.081       .  S
C11          C12   1.377       .  A
C11          H14   1.082       .  S
C12          C99   1.474       .  S
O15         Zn21   2.025       .  S
O15         C271   1.275       .  A
C16          C58   1.461       .  S
C16          O32   1.272       .  A
C16          O29   1.277       .  A
O17          C30   1.273       .  A
O17         Cd24   2.037       .  S
O18         C276   1.283       .  A
O18         Cd27   2.151   1_556  S
O19          C33   1.276       .  A
O19         Cd23   2.067       .  S
O20          C31   1.275       .  A
O20         Cd23   2.088       .  S
Zn21         O32   1.999       .  S
Zn21         O34   2.011       .  S
Zn21        O266   1.922   1_554  S
O22         C273   1.281   1_554  A
O22         Cd27   2.088       .  S
Cd23         O25   2.120       .  S
Cd23         O26   2.001       .  S
Cd24         O28   2.096       .  S
Cd24         O37   2.015       .  S
Cd24         O26   1.944       .  S
O25          C35   1.281       .  A
O26        Zn261   1.922       .  S
O26        Cd267   2.000       .  S
Cd27         O29   2.084       .  S
Cd27        O266   2.001   1_554  S
O28          C35   1.277       .  A
C30         O274   1.274       .  A
C31         C305   1.479       .  S
C31         O255   1.275       .  A
C33         C573   1.471   1_545  S
C33         O262   1.281       .  A
O34         C270   1.274   1_554  A
C35          C39   1.488       .  S
C36         C122   1.484       .  S
C36          O37   1.270       .  A
C36         O258   1.283       .  A
O38         Zn44   2.076       .  S
O38          C54   1.282       .  A
C39          O55   1.282       .  A
C39          O52   1.285       .  A
O40          C53   1.274       .  A
O40         Cd47   2.077       .  S
O41          C59   1.290       .  A
O41         Cd50   2.175       .  S
O42          C56   1.267       .  A
O42         Cd46   2.035       .  S
O43          C54   1.271       .  A
O43         Cd46   2.032       .  S
Zn44         O55   2.071       .  S
Zn44         O57   2.035       .  S
Zn44         O49   1.906       .  S
O45          C56   1.287       .  A
O45         Cd50   2.135       .  S
Cd46         O48   2.054       .  S
Cd46         O49   1.955       .  S
Cd47         O51   2.089       .  S
Cd47         O60   2.033       .  S
Cd47         O49   1.973       .  S
O48          C58   1.271       .  A
O49         Cd50   1.983       .  S
Cd50         O52   2.118       .  S
O51          C58   1.276       .  A
C53          O57   1.283       .  A
C54          C72   1.478       .  S
C56         C596   1.479   1_545  S
C59         C129   1.497       .  S
C59          O60   1.276       .  A
N61          C65   1.361       .  A
N61          C62   1.364       .  A
N61         C330   1.432       .  S
C62         C216   1.496       .  S
C62          C63   1.391       .  A
C63          C64   1.365       .  A
C63          H66   1.083       .  S
C64          C65   1.374       .  A
C64          H67   1.083       .  S
C65         C271   1.478       .  S
N68          C72   1.359       .  A
N68          C69   1.367       .  A
N68         C113   1.444       .  S
C69         C239   1.480       .  S
C69          C70   1.384       .  A
C70          C71   1.366       .  A
C70          H73   1.082       .  S
C71          C72   1.378       .  A
C71          H74   1.082       .  S
O75         Zn81   2.002       .  S
O75          C91   1.270       .  A
C76         C245   1.472       .  S
C76          O92   1.275       .  A
C76         O329   1.274       .  A
O77         C330   1.279       .  A
O77         Cd84   2.084       .  S
O78          C96   1.281       .  A
O78         Cd87   2.106       .  S
O79          C93   1.279       .  A
O79         Cd83   2.079       .  S
O80          C91   1.273       .  A
O80         Cd83   2.063       .  S
Zn81         O92   2.021       .  S
Zn81         O94   1.997       .  S
Zn81         O86   1.926       .  S
O82         C333   1.276   1_554  A
O82         Cd87   2.074       .  S
Cd83         O85   2.109       .  S
Cd83         O86   1.993       .  S
Cd84         O88   2.052       .  S
Cd84         O97   2.099       .  S
Cd84        O326   1.967   1_554  S
O85          C95   1.279       .  A
O86        Cd324   1.967       .  S
O86        Cd327   1.993       .  S
Cd87         O89   2.078       .  S
Cd87        O326   1.993   1_554  S
O88         C335   1.276   1_554  A
O89         C316   1.274   1_554  A
C90         N301   1.432       .  S
C90          O94   1.274       .  A
C90         O317   1.279       .  A
C91         C119   1.457       .  S
C93         C513   1.471       .  S
C93         O322   1.276       .  A
C95         C182   1.470       .  S
C95         O328   1.276       .  A
C96         C114   1.482       .  S
C96          O97   1.279       .  A
O98        Zn104   2.061       .  S
O98         C114   1.282       .  A
C99         O115   1.282       .  A
C99         O112   1.268       .  A
O100        C113   1.276       .  A
O100       Cd107   2.092       .  S
O101        C119   1.269       .  A
O101       Cd110   2.028       .  S
O102        C116   1.288       .  A
O102       Cd106   2.142       .  S
O103        C114   1.284       .  A
O103       Cd106   2.112       .  S
Zn104       O115   2.077       .  S
Zn104       O117   2.035       .  S
Zn104       O109   1.899       .  S
O105        C116   1.266       .  A
O105       Cd110   2.026       .  S
Cd106       O108   2.177       .  S
Cd106       O109   1.982       .  S
Cd107       O111   2.040       .  S
Cd107       O120   2.091       .  S
Cd107       O109   1.970       .  S
O108        C118   1.291       .  A
O109       Cd110   1.944       .  S
Cd110       O112   2.020       .  S
O111        C118   1.277       .  A
C113        O117   1.282       .  A
C116        C536   1.479       .  S
C118        C189   1.499       .  S
C119        O120   1.277       .  A
N121        C125   1.360       .  A
N121        C122   1.370       .  A
N121        C630   1.441   1_545  S
C122        C123   1.388       .  A
C123        C124   1.354       .  A
C123        H126   1.084       .  S
C124        C125   1.374       .  A
C124        H127   1.083       .  S
C125        C211   1.461       .  S
N128        C132   1.364       .  A
N128        C129   1.366       .  A
N128        C653   1.434   1_545  S
C129        C130   1.390       .  A
C130        C131   1.364       .  A
C130        H133   1.083       .  S
C131        C132   1.374       .  A
C131        H134   1.083       .  S
C132        C234   1.485       .  S
O135       Zn141   2.057       .  S
O135        C151   1.283       .  A
C136        C185   1.468       .  S
C136        O149   1.265       .  A
C136        O392   1.281       .  A
O137        C150   1.267       .  A
O137       Cd144   2.019       .  S
O138        C156   1.267       .  A
O138       Cd147   2.037       .  S
O139        C393   1.294   1_554  A
O139       Cd143   2.177       .  S
O140        C151   1.287       .  A
O140       Cd143   2.127       .  S
Zn141       O154   2.087       .  S
Zn141      O1112   2.080       .  S
Zn141       O386   1.922   1_554  S
O142        C153   1.265       .  A
O142       Cd147   2.021       .  S
Cd143       O145   2.207       .  S
Cd143       O386   1.986   1_554  S
Cd144       O148   1.967       .  S
Cd144       O157   2.074       .  S
Cd144       O146   1.937       .  S
O145        C395   1.294   1_554  A
O146       Zn381   1.922       .  S
O146       Cd147   1.946       .  S
O146       Cd383   1.986       .  S
Cd147      O1109   2.012       .  S
O148        C155   1.263       .  A
O149      Cd1107   2.012   1_455  S
C150        N601   1.441       .  S
C150        O394   1.286       .  A
C151        C179   1.484       .  S
O152      Zn1101   2.080   1_455  S
O152        C376   1.281   1_554  A
C153       C1173   1.487       .  S
C153        O379   1.294       .  A
O154        C390   1.286       .  A
C155        O385   1.294       .  A
C156        C174   1.454       .  S
C156        O157   1.273       .  A
O158       Zn164   1.989       .  S
O158        C174   1.269       .  A
C159        C192   1.486       .  S
C159        O175   1.276       .  A
C159        O172   1.276       .  A
O160        C173   1.282       .  A
O160       Cd167   2.087       .  S
O161        C179   1.281       .  A
O161       Cd170   2.103       .  S
O162        C176   1.276       .  A
O162       Cd166   2.053       .  S
O163        C174   1.273       .  A
O163       Cd166   2.063       .  S
Zn164       O177   1.997       .  S
Zn164      O1135   2.040       .  S
Zn164       O169   1.920       .  S
O165        C176   1.276       .  A
O165       Cd170   2.063       .  S
Cd166       O168   2.102       .  S
Cd166       O169   1.989       .  S
Cd167       O171   2.090       .  S
Cd167       O180   2.115       .  S
Cd167       O169   1.972       .  S
O168        C178   1.277       .  A
O169       Cd170   1.995       .  S
Cd170      O1132   2.101       .  S
O171        C178   1.280       .  A
O172      Cd1130   2.101   1_455  S
C173        N608   1.434       .  S
C173        O177   1.274       .  A
O175      Zn1124   2.040   1_455  S
C176       C1196   1.459       .  S
C179        O180   1.282       .  A
N181        C185   1.355       .  A
N181        C182   1.362       .  A
N181        C690   1.436       .  S
C182        C183   1.385       .  A
C183        C184   1.363       .  A
C183        H186   1.083       .  S
C184        C185   1.375       .  A
C184        H187   1.083       .  S
N188        C192   1.364       .  A
N188        C189   1.365       .  A
N188        C713   1.437       .  S
C189        C190   1.391       .  A
C190        C191   1.366       .  A
C190        H193   1.085       .  S
C191        C192   1.375       .  A
C191        H194   1.083       .  S
O195      Zn1161   1.975       .  S
O195        C211   1.268       .  A
C196        C238   1.480       .  S
C196        O212   1.269       .  A
C196        O209   1.286       .  A
O197        C450   1.272   1_554  A
O197       Cd204   2.089   1_565  S
O198        C456   1.292       .  A
O198       Cd207   2.185       .  S
O199       C1413   1.266       .  A
O199      Cd1163   2.036       .  S
O200        C451   1.271   1_554  A
O200      Cd1163   2.061       .  S
Zn201       O212   1.982       .  S
Zn201       O214   2.001   1_545  S
Zn201      O1155   1.975   1_455  S
Zn201       O206   1.890       .  S
O202        C213   1.293       .  A
O202       Cd207   2.166       .  S
Cd203       O205   2.037       .  S
Cd203      O1159   2.036       .  S
Cd203      O1160   2.061   1_455  S
Cd203       O446   1.999   1_554  S
Cd204       O208   2.067       .  S
Cd204       O217   2.024       .  S
Cd204       O446   1.991   1_554  S
O205        C215   1.270       .  A
O206       Cd207   2.018       .  S
O206       Cd443   1.998       .  S
O206       Cd444   1.991       .  S
Cd207       O209   2.154       .  S
O208        C215   1.272       .  A
C210        N661   1.436       .  S
C210        O214   1.276       .  A
C210        O437   1.272       .  A
C211        O440   1.271       .  A
C213       C1113   1.487   1_455  S
C213       O1399   1.266       .  A
C215        C219   1.448       .  S
C216        O217   1.274       .  A
C216        O438   1.292   1_554  A
O218      Zn1184   2.030       .  S
O218        C234   1.275       .  A
C219        O235   1.269       .  A
C219        O232   1.271       .  A
O220        C233   1.284   1_545  A
O220       Cd227   2.111       .  S
O221        C239   1.278       .  A
O221       Cd230   2.097       .  S
O222        C236   1.274       .  A
O222       Cd226   2.055       .  S
O223        C234   1.277       .  A
O223      Cd1186   2.104       .  S
Zn224       O235   1.994       .  S
Zn224       O237   1.989   1_545  S
Zn224      O1178   2.030   1_455  S
Zn224       O229   1.920       .  S
O225        C236   1.275       .  A
O225       Cd230   2.057       .  S
Cd226       O228   2.095       .  S
Cd226      O1183   2.104   1_455  S
Cd226       O229   1.990       .  S
Cd227       O231   2.120       .  S
Cd227       O240   2.106       .  S
Cd227       O229   1.986       .  S
O228        C238   1.282       .  A
O229       Cd230   1.983       .  S
Cd230       O232   2.055       .  S
O231        C238   1.282       .  A
C233        N668   1.437       .  S
C233        O237   1.273       .  A
C236       C1136   1.459   1_455  S
C239        O240   1.282       .  A
N241        C242   1.360       .  A
N241        C270   1.425       .  S
C242        C395   1.494       .  S
C243        C244   1.363       .  A
C243        H246   1.083       .  S
C244        C245   1.374       .  A
C244        H247   1.082       .  S
N248        C252   1.357       .  A
N248        C249   1.366       .  A
N248        C293   1.441       .  S
C249        C418   1.479       .  S
C249        C250   1.384       .  A
C250        C251   1.366       .  A
C250        H253   1.081       .  S
C251        C252   1.377       .  A
C251        H254   1.082       .  S
C252        C339   1.473       .  S
O255       Zn261   2.025       .  S
C256        C298   1.461       .  S
C256        O272   1.272       .  A
C256        O269   1.277       .  A
O257        C270   1.273       .  A
O257       Cd264   2.037       .  S
O258       Cd267   2.151       .  S
O259        C273   1.276       .  A
O259       Cd263   2.067       .  S
O260        C271   1.275   1_556  A
O260       Cd263   2.087       .  S
Zn261       O272   1.999       .  S
Zn261       O274   2.011       .  S
O262       Cd267   2.089       .  S
Cd263       O265   2.119       .  S
Cd263       O266   2.001       .  S
Cd264       O268   2.095       .  S
Cd264       O277   2.015       .  S
Cd264       O266   1.944       .  S
O265        C275   1.281       .  A
Cd267       O269   2.084       .  S
O268        C275   1.277       .  A
C273        C813   1.471   1_545  S
C275        C279   1.487       .  S
C276        C362   1.484       .  S
C276        O277   1.270       .  A
O278       Zn284   2.076       .  S
O278        C294   1.282       .  A
C279        O295   1.282       .  A
C279        O292   1.285       .  A
O280        C293   1.274       .  A
O280       Cd287   2.077       .  S
O281        C299   1.290       .  A
O281       Cd290   2.174       .  S
O282        C296   1.267       .  A
O282       Cd286   2.035       .  S
O283        C294   1.271       .  A
O283       Cd286   2.032       .  S
Zn284       O295   2.071       .  S
Zn284       O297   2.036       .  S
Zn284       O289   1.906       .  S
O285        C296   1.287       .  A
O285       Cd290   2.135       .  S
Cd286       O288   2.053       .  S
Cd286       O289   1.955       .  S
Cd287       O291   2.089       .  S
Cd287       O300   2.033       .  S
Cd287       O289   1.973       .  S
O288        C298   1.271       .  A
O289       Cd290   1.983       .  S
Cd290       O292   2.117       .  S
O291        C298   1.276       .  A
C293        O297   1.283       .  A
C294        C312   1.478       .  S
C296        C836   1.479   1_545  S
C299        C369   1.497       .  S
C299        O300   1.276       .  A
N301        C305   1.361       .  A
N301        C302   1.364       .  A
C302        C456   1.496       .  S
C302        C303   1.391       .  A
C303        C304   1.365       .  A
C303        H306   1.083       .  S
C304        C305   1.374       .  A
C304        H307   1.083       .  S
N308        C312   1.359       .  A
N308        C309   1.367       .  A
N308        C353   1.444       .  S
C309        C479   1.480       .  S
C309        C310   1.384       .  A
C310        C311   1.366       .  A
C310        H313   1.082       .  S
C311        C312   1.378       .  A
C311        H314   1.082       .  S
O315       Zn321   2.002       .  S
O315        C331   1.270       .  A
C316        O332   1.275       .  A
O317       Cd324   2.084       .  S
O318        C336   1.281       .  A
O318       Cd327   2.106       .  S
O319        C333   1.279       .  A
O319       Cd323   2.078       .  S
O320        C331   1.273       .  A
O320       Cd323   2.063       .  S
Zn321       O332   2.021       .  S
Zn321       O334   1.997       .  S
Zn321       O326   1.926       .  S
O322       Cd327   2.074       .  S
Cd323       O325   2.109       .  S
Cd323       O326   1.993       .  S
Cd324       O328   2.052       .  S
Cd324       O337   2.099       .  S
O325        C335   1.279       .  A
Cd327       O329   2.078       .  S
C330        O334   1.274   1_554  A
C331        C359   1.457       .  S
C333        C753   1.471       .  S
C335        C422   1.470       .  S
C336        C354   1.483       .  S
C336        O337   1.279       .  A
O338       Zn344   2.061       .  S
O338        C354   1.282       .  A
C339        O355   1.282       .  A
C339        O352   1.268       .  A
O340        C353   1.276       .  A
O340       Cd347   2.093       .  S
O341        C359   1.269       .  A
O341       Cd350   2.028       .  S
O342        C356   1.288       .  A
O342       Cd346   2.143       .  S
O343        C354   1.284       .  A
O343       Cd346   2.112       .  S
Zn344       O355   2.077       .  S
Zn344       O357   2.034       .  S
Zn344       O349   1.899       .  S
O345        C356   1.266       .  A
O345       Cd350   2.027       .  S
Cd346       O348   2.177       .  S
Cd346       O349   1.982       .  S
Cd347       O351   2.041       .  S
Cd347       O360   2.091       .  S
Cd347       O349   1.970       .  S
O348        C358   1.291       .  A
O349       Cd350   1.944       .  S
Cd350       O352   2.020       .  S
O351        C358   1.277       .  A
C353        O357   1.282       .  A
C356        C776   1.479       .  S
C358        C429   1.499       .  S
C359        O360   1.277       .  A
N361        C365   1.360       .  A
N361        C362   1.370       .  A
N361        C870   1.441   1_546  S
C362        C363   1.388       .  A
C363        C364   1.354       .  A
C363        H366   1.084       .  S
C364        C365   1.374       .  A
C364        H367   1.083       .  S
C365        C451   1.461       .  S
N368        C372   1.364       .  A
N368        C369   1.366       .  A
N368        C893   1.434   1_545  S
C369        C370   1.390       .  A
C370        C371   1.363       .  A
C370        H373   1.083       .  S
C371        C372   1.374       .  A
C371        H374   1.083       .  S
C372        C474   1.485       .  S
O375       Zn381   2.057       .  S
O375        C391   1.283       .  A
C376        C425   1.468       .  S
C376        O389   1.265       .  A
O377        C390   1.267   1_556  A
O377       Cd384   2.019       .  S
O378        C396   1.267       .  A
O378       Cd387   2.037       .  S
O379       Cd383   2.178       .  S
O380        C391   1.287       .  A
O380       Cd383   2.128       .  S
Zn381      O1352   2.080       .  S
Zn381       O394   2.087       .  S
O382        C393   1.265       .  A
O382       Cd387   2.020       .  S
Cd383       O385   2.207       .  S
Cd384       O388   1.966       .  S
Cd384       O397   2.074       .  S
Cd384       O386   1.936       .  S
O386       Cd387   1.945       .  S
Cd387      O1349   2.012       .  S
O388        C395   1.263       .  A
O389      Cd1347   2.012   1_455  S
C390        N841   1.441   1_554  S
C391        C419   1.484       .  S
O392      Zn1341   2.080   1_455  S
C393       C1413   1.487   1_556  S
C396        C414   1.454       .  S
C396        O397   1.273       .  A
O398       Zn404   1.988       .  S
O398        C414   1.269       .  A
C399        C432   1.487       .  S
C399        O415   1.276       .  A
C399        O412   1.276       .  A
O400        C413   1.282       .  A
O400       Cd407   2.087       .  S
O401        C419   1.281       .  A
O401       Cd410   2.103       .  S
O402        C416   1.276       .  A
O402       Cd406   2.053       .  S
O403        C414   1.273       .  A
O403       Cd406   2.063       .  S
Zn404      O1375   2.040       .  S
Zn404       O417   1.998       .  S
Zn404       O409   1.919       .  S
O405        C416   1.276       .  A
O405       Cd410   2.064       .  S
Cd406       O408   2.102       .  S
Cd406       O409   1.989       .  S
Cd407       O411   2.090       .  S
Cd407       O420   2.115       .  S
Cd407       O409   1.972       .  S
O408        C418   1.277       .  A
O409       Cd410   1.995       .  S
Cd410      O1372   2.101       .  S
O411        C418   1.280       .  A
O412      Cd1370   2.101   1_455  S
C413        N848   1.434       .  S
C413        O417   1.274       .  A
O415      Zn1364   2.040   1_455  S
C416       C1436   1.459       .  S
C419        O420   1.282       .  A
N421        C425   1.355       .  A
N421        C422   1.362       .  A
N421        C930   1.436       .  S
C422        C423   1.385       .  A
C423        C424   1.363       .  A
C423        H426   1.083       .  S
C424        C425   1.375       .  A
C424        H427   1.084       .  S
N428        C432   1.364       .  A
N428        C429   1.365       .  A
N428        C953   1.437       .  S
C429        C430   1.391       .  A
C430        C431   1.366       .  A
C430        H433   1.085       .  S
C431        C432   1.375       .  A
C431        H434   1.083       .  S
O435      Zn1401   1.975       .  S
O435        C451   1.268       .  A
C436        C478   1.480       .  S
C436        O452   1.269       .  A
C436        O449   1.286       .  A
O437       Cd444   2.089   1_565  S
O438       Cd447   2.185       .  S
O439       C1173   1.266       .  A
O439      Cd1403   2.036       .  S
O440      Cd1403   2.060       .  S
Zn441      O1395   1.975   1_455  S
Zn441       O452   1.983       .  S
Zn441       O454   2.001   1_545  S
Zn441       O446   1.890       .  S
O442        C453   1.293   1_556  A
O442       Cd447   2.165       .  S
Cd443      O1399   2.036       .  S
Cd443      O1400   2.060   1_455  S
Cd443       O445   2.037       .  S
Cd444       O448   2.067       .  S
Cd444       O457   2.024       .  S
O445        C455   1.270       .  A
O446       Cd447   2.018       .  S
Cd447       O449   2.154       .  S
O448        C455   1.272       .  A
C450        N901   1.436       .  S
C450        O454   1.276       .  A
C453       C1353   1.487   1_454  S
C453       O1159   1.266       .  A
C455        C459   1.448       .  S
C456        O457   1.274       .  A
O458      Zn1424   2.030       .  S
O458        C474   1.275       .  A
C459        O475   1.269       .  A
C459        O472   1.271       .  A
O460        C473   1.284   1_545  A
O460       Cd467   2.112       .  S
O461        C479   1.278       .  A
O461       Cd470   2.097       .  S
O462        C476   1.274       .  A
O462       Cd466   2.056       .  S
O463        C474   1.276       .  A
O463      Cd1426   2.104       .  S
Zn464      O1418   2.030   1_455  S
Zn464       O475   1.994       .  S
Zn464       O477   1.988   1_545  S
Zn464       O469   1.920       .  S
O465        C476   1.275       .  A
O465       Cd470   2.057       .  S
Cd466      O1423   2.104   1_455  S
Cd466       O468   2.095       .  S
Cd466       O469   1.989       .  S
Cd467       O471   2.120       .  S
Cd467       O480   2.106       .  S
Cd467       O469   1.986       .  S
O468        C478   1.282       .  A
O469       Cd470   1.983       .  S
Cd470       O472   2.055       .  S
O471        C478   1.282       .  A
C473        N908   1.437       .  S
C473        O477   1.273       .  A
C476       C1376   1.459   1_455  S
C479        O480   1.282       .  A
N481        C725   1.360       .  A
N481        C482   1.360       .  A
N481        C510   1.425       .  S
C482        C635   1.494       .  S
C482        C723   1.393       .  A
C483        C722   1.393       .  A
C483        C484   1.363       .  A
C483        H486   1.083       .  S
C484        C485   1.374       .  A
C484        H487   1.082       .  S
C485        N721   1.360       .  A
C485        C796   1.472       .  S
N488        C492   1.357       .  A
N488        C489   1.366       .  A
N488        C533   1.441       .  S
C489        C658   1.479       .  S
C489        C490   1.384       .  A
C490        C491   1.366       .  A
C490        H493   1.081       .  S
C491        C492   1.377       .  A
C491        H494   1.082       .  S
C492        C579   1.473       .  S
O495       Zn501   2.025       .  S
O495        C751   1.275       .  A
C496        C538   1.461       .  S
C496        O512   1.272       .  A
C496        O509   1.277       .  A
O497        C510   1.273       .  A
O497       Cd504   2.037       .  S
O498        C756   1.283       .  A
O498       Cd507   2.151   1_556  S
O499        C513   1.276       .  A
O499       Cd503   2.067       .  S
O500        C511   1.275       .  A
O500       Cd503   2.088       .  S
Zn501       O512   1.999       .  S
Zn501       O514   2.011       .  S
Zn501       O746   1.922   1_554  S
O502        C753   1.281   1_554  A
O502       Cd507   2.088       .  S
Cd503       O505   2.120       .  S
Cd503       O506   2.001       .  S
Cd504       O508   2.096       .  S
Cd504       O517   2.015       .  S
Cd504       O506   1.944       .  S
O505        C515   1.281       .  A
O506       Zn741   1.922       .  S
O506       Cd747   2.001       .  S
Cd507       O509   2.084       .  S
Cd507       O746   2.001   1_554  S
O508        C515   1.277       .  A
C510        O754   1.274       .  A
C511        C785   1.478       .  S
C511        O735   1.275       .  A
C513        O742   1.281       .  A
O514        C750   1.274   1_554  A
C515        C519   1.488       .  S
C516        C602   1.484       .  S
C516        O738   1.283       .  A
C516        O517   1.270       .  A
O518       Zn524   2.076       .  S
O518        C534   1.282       .  A
C519        O535   1.282       .  A
C519        O532   1.285       .  A
O520        C533   1.274       .  A
O520       Cd527   2.077       .  S
O521        C539   1.290       .  A
O521       Cd530   2.175       .  S
O522        C536   1.267       .  A
O522       Cd526   2.035       .  S
O523        C534   1.271       .  A
O523       Cd526   2.032       .  S
Zn524       O535   2.071       .  S
Zn524       O537   2.035       .  S
Zn524       O529   1.906       .  S
O525        C536   1.287       .  A
O525       Cd530   2.135       .  S
Cd526       O528   2.054       .  S
Cd526       O529   1.955       .  S
Cd527       O531   2.089       .  S
Cd527       O540   2.033       .  S
Cd527       O529   1.973       .  S
O528        C538   1.271       .  A
O529       Cd530   1.983       .  S
Cd530       O532   2.118       .  S
O531        C538   1.276       .  A
C533        O537   1.283       .  A
C534        C552   1.478       .  S
C539        C609   1.497       .  S
C539        O540   1.276       .  A
N541        C545   1.361       .  A
N541        C542   1.364       .  A
N541        C810   1.432       .  S
C542        C696   1.496       .  S
C542        C543   1.391       .  A
C543        C544   1.365       .  A
C543        H546   1.083       .  S
C544        C545   1.374       .  A
C544        H547   1.083       .  S
C545        C751   1.478       .  S
N548        C552   1.359       .  A
N548        C549   1.367       .  A
N548        C593   1.444       .  S
C549        C719   1.480       .  S
C549        C550   1.384       .  A
C550        C551   1.366       .  A
C550        H553   1.082       .  S
C551        C552   1.378       .  A
C551        H554   1.082       .  S
O555       Zn561   2.002       .  S
O555        C571   1.270       .  A
C556        C725   1.472       .  S
C556        O572   1.275       .  A
C556        O809   1.274       .  A
O557        C810   1.279       .  A
O557       Cd564   2.084       .  S
O558        C576   1.281       .  A
O558       Cd567   2.106       .  S
O559        C573   1.279       .  A
O559       Cd563   2.079       .  S
O560        C571   1.273       .  A
O560       Cd563   2.063       .  S
Zn561       O572   2.021       .  S
Zn561       O574   1.997       .  S
Zn561       O566   1.926       .  S
O562        C813   1.276   1_554  A
O562       Cd567   2.074       .  S
Cd563       O565   2.109       .  S
Cd563       O566   1.993       .  S
Cd564       O568   2.052       .  S
Cd564       O577   2.099       .  S
Cd564       O806   1.967   1_554  S
O565        C575   1.279       .  A
O566       Cd804   1.967       .  S
O566       Cd807   1.993       .  S
Cd567       O569   2.078       .  S
Cd567       O806   1.993   1_554  S
O568        C815   1.276   1_554  A
O569        C796   1.274   1_554  A
C570        N781   1.432       .  S
C570        O797   1.279       .  A
C570        O574   1.274       .  A
C571        C599   1.457       .  S
C573        O802   1.276       .  A
C575        C662   1.470       .  S
C575        O808   1.276       .  A
C576        C594   1.482       .  S
C576        O577   1.279       .  A
O578       Zn584   2.061       .  S
O578        C594   1.282       .  A
C579        O595   1.282       .  A
C579        O592   1.268       .  A
O580        C593   1.276       .  A
O580       Cd587   2.092       .  S
O581        C599   1.269       .  A
O581       Cd590   2.028       .  S
O582        C596   1.288       .  A
O582       Cd586   2.142       .  S
O583        C594   1.284       .  A
O583       Cd586   2.112       .  S
Zn584       O595   2.077       .  S
Zn584       O597   2.034       .  S
Zn584       O589   1.899       .  S
O585        C596   1.266       .  A
O585       Cd590   2.026       .  S
Cd586       O588   2.177       .  S
Cd586       O589   1.982       .  S
Cd587       O591   2.040       .  S
Cd587       O600   2.091       .  S
Cd587       O589   1.971       .  S
O588        C598   1.291       .  A
O589       Cd590   1.944       .  S
Cd590       O592   2.020       .  S
O591        C598   1.277       .  A
C593        O597   1.282       .  A
C598        C669   1.499       .  S
C599        O600   1.277       .  A
N601        C605   1.360       .  A
N601        C602   1.370       .  A
C602        C603   1.388       .  A
C603        C604   1.354       .  A
C603        H606   1.084       .  S
C604        C605   1.374       .  A
C604        H607   1.083       .  S
C605        C691   1.461       .  S
N608        C612   1.364       .  A
N608        C609   1.366       .  A
C609        C610   1.390       .  A
C610        C611   1.364       .  A
C610        H613   1.083       .  S
C611        C612   1.374       .  A
C611        H614   1.083       .  S
C612        C714   1.485       .  S
O615       Zn621   2.057       .  S
O615        C631   1.283       .  A
C616        C665   1.468       .  S
C616        O872   1.281       .  A
C616        O629   1.265       .  A
O617        C630   1.267       .  A
O617       Cd624   2.019       .  S
O618        C636   1.267       .  A
O618       Cd627   2.037       .  S
O619        C873   1.294   1_554  A
O619       Cd623   2.177       .  S
O620        C631   1.287       .  A
O620       Cd623   2.127       .  S
Zn621      O1592   2.080       .  S
Zn621       O634   2.087       .  S
Zn621       O866   1.922   1_554  S
O622        C633   1.265       .  A
O622       Cd627   2.020       .  S
Cd623       O625   2.207       .  S
Cd623       O866   1.986   1_554  S
Cd624       O628   1.967       .  S
Cd624       O637   2.074       .  S
Cd624       O626   1.936       .  S
O625        C875   1.294   1_554  A
O626       Zn861   1.922       .  S
O626       Cd863   1.986       .  S
O626       Cd627   1.946       .  S
Cd627      O1589   2.012       .  S
O628        C635   1.263       .  A
O629      Cd1587   2.012   1_455  S
C630        O874   1.286       .  A
C631        C659   1.484       .  S
O632      Zn1581   2.080   1_455  S
O632        C856   1.281   1_554  A
C633       C1653   1.487       .  S
C633        O859   1.294       .  A
O634        C870   1.286       .  A
C635        O865   1.294       .  A
C636        C654   1.454       .  S
C636        O637   1.273       .  A
O638       Zn644   1.989       .  S
O638        C654   1.269       .  A
C639        C672   1.486       .  S
C639        O655   1.276       .  A
C639        O652   1.276       .  A
O640        C653   1.282       .  A
O640       Cd647   2.087       .  S
O641        C659   1.281       .  A
O641       Cd650   2.103       .  S
O642        C656   1.276       .  A
O642       Cd646   2.053       .  S
O643        C654   1.273       .  A
O643       Cd646   2.063       .  S
Zn644      O1615   2.040       .  S
Zn644       O657   1.997       .  S
Zn644       O649   1.920       .  S
O645        C656   1.276       .  A
O645       Cd650   2.063       .  S
Cd646       O648   2.102       .  S
Cd646       O649   1.989       .  S
Cd647       O651   2.090       .  S
Cd647       O660   2.115       .  S
Cd647       O649   1.972       .  S
O648        C658   1.277       .  A
O649       Cd650   1.995       .  S
Cd650      O1612   2.101       .  S
O651        C658   1.280       .  A
O652      Cd1610   2.101   1_455  S
C653        O657   1.274       .  A
O655      Zn1604   2.040   1_455  S
C656       C1676   1.459       .  S
C659        O660   1.282       .  A
N661        C665   1.355       .  A
N661        C662   1.362       .  A
C662        C663   1.385       .  A
C663        C664   1.363       .  A
C663        H666   1.083       .  S
C664        C665   1.375       .  A
C664        H667   1.083       .  S
N668        C672   1.364       .  A
N668        C669   1.365       .  A
C669        C670   1.391       .  A
C670        C671   1.366       .  A
C670        H673   1.085       .  S
C671        C672   1.375       .  A
C671        H674   1.083       .  S
O675      Zn1641   1.975       .  S
O675        C691   1.268       .  A
C676        C718   1.480       .  S
C676        O692   1.269       .  A
C676        O689   1.286       .  A
O677        C930   1.272   1_554  A
O677       Cd684   2.089       .  S
O678        C936   1.292       .  A
O678       Cd687   2.185       .  S
O679       C1893   1.266       .  A
O679      Cd1643   2.036       .  S
O680        C931   1.271   1_554  A
O680      Cd1643   2.061       .  S
Zn681      O1635   1.975   1_455  S
Zn681       O692   1.982       .  S
Zn681       O694   2.001       .  S
Zn681       O686   1.890       .  S
O682        C693   1.293       .  A
O682       Cd687   2.166       .  S
Cd683      O1639   2.036       .  S
Cd683      O1640   2.061   1_455  S
Cd683       O685   2.037       .  S
Cd683       O926   1.999   1_554  S
Cd684       O688   2.067       .  S
Cd684       O697   2.024       .  S
Cd684       O926   1.991   1_554  S
O685        C695   1.270       .  A
O686       Cd923   1.998       .  S
O686       Cd924   1.991       .  S
O686       Cd687   2.018       .  S
Cd687       O689   2.154       .  S
O688        C695   1.272       .  A
C690        O917   1.272       .  A
C690        O694   1.276       .  A
C691        O920   1.271       .  A
C693       C1593   1.487   1_455  S
C693       O1879   1.266       .  A
C695        C699   1.448       .  S
C696        O918   1.292   1_554  A
C696        O697   1.274       .  A
O698      Zn1664   2.030       .  S
O698        C714   1.275       .  A
C699        O715   1.269       .  A
C699        O712   1.271       .  A
O700        C713   1.284       .  A
O700       Cd707   2.111       .  S
O701        C719   1.278       .  A
O701       Cd710   2.097       .  S
O702        C716   1.274       .  A
O702       Cd706   2.055       .  S
O703        C714   1.277       .  A
O703      Cd1666   2.104       .  S
Zn704      O1658   2.030   1_455  S
Zn704       O715   1.994       .  S
Zn704       O717   1.989       .  S
Zn704       O709   1.920       .  S
O705        C716   1.275       .  A
O705       Cd710   2.057       .  S
Cd706      O1663   2.104   1_455  S
Cd706       O708   2.095       .  S
Cd706       O709   1.989       .  S
Cd707       O711   2.120       .  S
Cd707       O720   2.106       .  S
Cd707       O709   1.986       .  S
O708        C718   1.282       .  A
O709       Cd710   1.983       .  S
Cd710       O712   2.055       .  S
O711        C718   1.282       .  A
C713        O717   1.273       .  A
C716       C1616   1.459   1_455  S
C719        O720   1.282       .  A
N721        C722   1.360       .  A
N721        C750   1.425       .  S
C722        C875   1.494       .  S
C723        C724   1.363       .  A
C723        H726   1.083       .  S
C724        C725   1.374       .  A
C724        H727   1.082       .  S
N728        C732   1.357       .  A
N728        C729   1.366       .  A
N728        C773   1.441       .  S
C729        C898   1.479       .  S
C729        C730   1.384       .  A
C730        C731   1.366       .  A
C730        H733   1.081       .  S
C731        C732   1.377       .  A
C731        H734   1.082       .  S
C732        C819   1.473       .  S
O735       Zn741   2.025       .  S
C736        C778   1.461       .  S
C736        O752   1.272       .  A
C736        O749   1.277       .  A
O737        C750   1.273       .  A
O737       Cd744   2.037       .  S
O738       Cd747   2.151       .  S
O739        C753   1.276       .  A
O739       Cd743   2.067       .  S
O740        C751   1.275   1_556  A
O740       Cd743   2.087       .  S
Zn741       O752   1.999       .  S
Zn741       O754   2.011       .  S
O742       Cd747   2.089       .  S
Cd743       O745   2.119       .  S
Cd743       O746   2.001       .  S
Cd744       O748   2.095       .  S
Cd744       O757   2.015       .  S
Cd744       O746   1.944       .  S
O745        C755   1.281       .  A
Cd747       O749   2.084       .  S
O748        C755   1.277       .  A
C755        C759   1.487       .  S
C756        C842   1.484       .  S
C756        O757   1.270       .  A
O758       Zn764   2.076       .  S
O758        C774   1.282       .  A
C759        O775   1.282       .  A
C759        O772   1.285       .  A
O760        C773   1.274       .  A
O760       Cd767   2.077       .  S
O761        C779   1.290       .  A
O761       Cd770   2.174       .  S
O762        C776   1.267       .  A
O762       Cd766   2.035       .  S
O763        C774   1.271       .  A
O763       Cd766   2.032       .  S
Zn764       O775   2.071       .  S
Zn764       O777   2.036       .  S
Zn764       O769   1.906       .  S
O765        C776   1.287       .  A
O765       Cd770   2.135       .  S
Cd766       O768   2.053       .  S
Cd766       O769   1.955       .  S
Cd767       O771   2.089       .  S
Cd767       O780   2.033       .  S
Cd767       O769   1.973       .  S
O768        C778   1.271       .  A
O769       Cd770   1.983       .  S
Cd770       O772   2.117       .  S
O771        C778   1.276       .  A
C773        O777   1.283       .  A
C774        C792   1.478       .  S
C779        C849   1.497       .  S
C779        O780   1.276       .  A
N781        C785   1.361       .  A
N781        C782   1.364       .  A
C782        C936   1.496       .  S
C782        C783   1.391       .  A
C783        C784   1.365       .  A
C783        H786   1.083       .  S
C784        C785   1.374       .  A
C784        H787   1.083       .  S
N788        C792   1.359       .  A
N788        C789   1.367       .  A
N788        C833   1.444       .  S
C789        C959   1.480       .  S
C789        C790   1.384       .  A
C790        C791   1.366       .  A
C790        H793   1.082       .  S
C791        C792   1.378       .  A
C791        H794   1.082       .  S
O795       Zn801   2.002       .  S
O795        C811   1.270       .  A
C796        O812   1.275       .  A
O797       Cd804   2.085       .  S
O798        C816   1.281       .  A
O798       Cd807   2.106       .  S
O799        C813   1.279       .  A
O799       Cd803   2.078       .  S
O800        C811   1.273       .  A
O800       Cd803   2.063       .  S
Zn801       O812   2.021       .  S
Zn801       O814   1.997       .  S
Zn801       O806   1.926       .  S
O802       Cd807   2.074       .  S
Cd803       O805   2.109       .  S
Cd803       O806   1.993       .  S
Cd804       O808   2.052       .  S
Cd804       O817   2.099       .  S
O805        C815   1.279       .  A
Cd807       O809   2.078       .  S
C810        O814   1.274   1_554  A
C811        C839   1.457       .  S
C815        C902   1.470       .  S
C816        C834   1.483       .  S
C816        O817   1.279       .  A
O818       Zn824   2.061       .  S
O818        C834   1.282       .  A
C819        O835   1.282       .  A
C819        O832   1.268       .  A
O820        C833   1.276       .  A
O820       Cd827   2.093       .  S
O821        C839   1.269       .  A
O821       Cd830   2.028       .  S
O822        C836   1.288       .  A
O822       Cd826   2.143       .  S
O823        C834   1.284       .  A
O823       Cd826   2.112       .  S
Zn824       O835   2.077       .  S
Zn824       O837   2.035       .  S
Zn824       O829   1.899       .  S
O825        C836   1.266       .  A
O825       Cd830   2.026       .  S
Cd826       O828   2.177       .  S
Cd826       O829   1.982       .  S
Cd827       O831   2.041       .  S
Cd827       O840   2.091       .  S
Cd827       O829   1.970       .  S
O828        C838   1.291       .  A
O829       Cd830   1.944       .  S
Cd830       O832   2.020       .  S
O831        C838   1.277       .  A
C833        O837   1.282       .  A
C838        C909   1.499       .  S
C839        O840   1.277       .  A
N841        C845   1.360       .  A
N841        C842   1.370       .  A
C842        C843   1.388       .  A
C843        C844   1.354       .  A
C843        H846   1.084       .  S
C844        C845   1.374       .  A
C844        H847   1.083       .  S
C845        C931   1.461       .  S
N848        C852   1.364       .  A
N848        C849   1.366       .  A
C849        C850   1.390       .  A
C850        C851   1.363       .  A
C850        H853   1.083       .  S
C851        C852   1.374       .  A
C851        H854   1.083       .  S
C852        C954   1.485       .  S
O855       Zn861   2.057       .  S
O855        C871   1.283       .  A
C856        C905   1.468       .  S
C856        O869   1.265       .  A
O857        C870   1.267   1_556  A
O857       Cd864   2.019       .  S
O858        C876   1.267       .  A
O858       Cd867   2.037       .  S
O859       Cd863   2.178       .  S
O860        C871   1.287       .  A
O860       Cd863   2.128       .  S
Zn861      O1832   2.080       .  S
Zn861       O874   2.087       .  S
O862        C873   1.265       .  A
O862       Cd867   2.020       .  S
Cd863       O865   2.207       .  S
Cd864       O868   1.966       .  S
Cd864       O877   2.074       .  S
Cd864       O866   1.936       .  S
O866       Cd867   1.946       .  S
Cd867      O1829   2.012       .  S
O868        C875   1.263       .  A
O869      Cd1827   2.012   1_455  S
C871        C899   1.484       .  S
O872      Zn1821   2.080   1_455  S
C873       C1893   1.487   1_556  S
C876        C894   1.454       .  S
C876        O877   1.273       .  A
O878       Zn884   1.988       .  S
O878        C894   1.269       .  A
C879        C912   1.487       .  S
C879        O895   1.276       .  A
C879        O892   1.276       .  A
O880        C893   1.282       .  A
O880       Cd887   2.087       .  S
O881        C899   1.281       .  A
O881       Cd890   2.103       .  S
O882        C896   1.276       .  A
O882       Cd886   2.053       .  S
O883        C894   1.273       .  A
O883       Cd886   2.063       .  S
Zn884      O1855   2.040       .  S
Zn884       O897   1.998       .  S
Zn884       O889   1.919       .  S
O885        C896   1.276       .  A
O885       Cd890   2.064       .  S
Cd886       O888   2.102       .  S
Cd886       O889   1.989       .  S
Cd887       O891   2.091       .  S
Cd887       O900   2.115       .  S
Cd887       O889   1.972       .  S
O888        C898   1.277       .  A
O889       Cd890   1.995       .  S
Cd890      O1852   2.101       .  S
O891        C898   1.280       .  A
O892      Cd1850   2.101   1_455  S
C893        O897   1.274       .  A
O895      Zn1844   2.040   1_455  S
C896       C1916   1.459       .  S
C899        O900   1.282       .  A
N901        C905   1.355       .  A
N901        C902   1.362       .  A
C902        C903   1.385       .  A
C903        C904   1.363       .  A
C903        H906   1.083       .  S
C904        C905   1.375       .  A
C904        H907   1.084       .  S
N908        C912   1.364       .  A
N908        C909   1.365       .  A
C909        C910   1.391       .  A
C910        C911   1.366       .  A
C910        H913   1.085       .  S
C911        C912   1.375       .  A
C911        H914   1.083       .  S
O915      Zn1881   1.975       .  S
O915        C931   1.268       .  A
C916        C958   1.480       .  S
C916        O932   1.269       .  A
C916        O929   1.286       .  A
O917       Cd924   2.089       .  S
O918       Cd927   2.185       .  S
O919       C1653   1.266       .  A
O919      Cd1883   2.036       .  S
O920      Cd1883   2.060       .  S
Zn921      O1875   1.975   1_455  S
Zn921       O932   1.983       .  S
Zn921       O934   2.001       .  S
Zn921       O926   1.890       .  S
O922        C933   1.293   1_556  A
O922       Cd927   2.165       .  S
Cd923      O1879   2.036       .  S
Cd923      O1880   2.060   1_455  S
Cd923       O925   2.037       .  S
Cd924       O928   2.067       .  S
Cd924       O937   2.024       .  S
O925        C935   1.270       .  A
O926       Cd927   2.018       .  S
Cd927       O929   2.154       .  S
O928        C935   1.272       .  A
C930        O934   1.276       .  A
C933       C1833   1.487   1_454  S
C933       O1639   1.266       .  A
C935        C939   1.448       .  S
C936        O937   1.274       .  A
O938      Zn1904   2.030       .  S
O938        C954   1.275       .  A
C939        O955   1.269       .  A
C939        O952   1.271       .  A
O940        C953   1.284       .  A
O940       Cd947   2.112       .  S
O941        C959   1.278       .  A
O941       Cd950   2.097       .  S
O942        C956   1.274       .  A
O942       Cd946   2.056       .  S
O943        C954   1.276       .  A
O943      Cd1906   2.104       .  S
Zn944      O1898   2.030   1_455  S
Zn944       O955   1.994       .  S
Zn944       O957   1.988       .  S
Zn944       O949   1.920       .  S
O945        C956   1.275       .  A
O945       Cd950   2.057       .  S
Cd946      O1903   2.104   1_455  S
Cd946       O948   2.095       .  S
Cd946       O949   1.989       .  S
Cd947       O951   2.120       .  S
Cd947       O960   2.106       .  S
Cd947       O949   1.986       .  S
O948        C958   1.282       .  A
O949       Cd950   1.983       .  S
Cd950       O952   2.055       .  S
O951        C958   1.282       .  A
C953        O957   1.273       .  A
C956       C1856   1.459   1_455  S
C959        O960   1.282       .  A
N961       C1205   1.360       .  A
N961        C962   1.360       .  A
N961        C990   1.425       .  S
C962       C1115   1.494       .  S
C962       C1203   1.393       .  A
C963       C1202   1.393       .  A
C963        C964   1.363       .  A
C963        H966   1.083       .  S
C964        C965   1.374       .  A
C964        H967   1.082       .  S
C965       N1201   1.360       .  A
C965       C1276   1.472       .  S
N968        C972   1.357       .  A
N968        C969   1.366       .  A
N968       C1013   1.441       .  S
C969       C1138   1.479       .  S
C969        C970   1.384       .  A
C970        C971   1.366       .  A
C970        H973   1.081       .  S
C971        C972   1.377       .  A
C971        H974   1.082       .  S
C972       C1059   1.473       .  S
O975       Zn981   2.025       .  S
O975       C1231   1.275       .  A
C976       C1018   1.461       .  S
C976        O992   1.272       .  A
C976        O989   1.277       .  A
O977        C990   1.273       .  A
O977       Cd984   2.037       .  S
O978       C1236   1.283       .  A
O978       Cd987   2.151   1_556  S
O979        C993   1.276       .  A
O979       Cd983   2.067       .  S
O980        C991   1.275       .  A
O980       Cd983   2.088       .  S
Zn981       O992   1.999       .  S
Zn981       O994   2.011       .  S
Zn981      O1226   1.922   1_554  S
O982       C1233   1.281   1_554  A
O982       Cd987   2.088       .  S
Cd983       O985   2.120       .  S
Cd983       O986   2.001       .  S
Cd984       O988   2.096       .  S
Cd984       O997   2.015       .  S
Cd984       O986   1.944       .  S
O985        C995   1.281       .  A
O986      Zn1221   1.922       .  S
O986      Cd1227   2.001       .  S
Cd987       O989   2.084       .  S
Cd987      O1226   2.001   1_554  S
O988        C995   1.277       .  A
C990       O1234   1.274       .  A
C991       C1265   1.478       .  S
C991       O1215   1.275       .  A
C993       C1533   1.471   1_545  S
C993       O1222   1.281       .  A
O994       C1230   1.274   1_554  A
C995        C999   1.488       .  S
C996       C1082   1.484       .  S
C996       O1218   1.283       .  A
C996        O997   1.270       .  A
O998      Zn1004   2.076       .  S
O998       C1014   1.282       .  A
C999       O1015   1.282       .  A
C999       O1012   1.285       .  A
O1000      C1013   1.274       .  A
O1000     Cd1007   2.077       .  S
O1001      C1019   1.290       .  A
O1001     Cd1010   2.175       .  S
O1002      C1016   1.267       .  A
O1002     Cd1006   2.035       .  S
O1003      C1014   1.271       .  A
O1003     Cd1006   2.032       .  S
Zn1004     O1015   2.071       .  S
Zn1004     O1017   2.035       .  S
Zn1004     O1009   1.906       .  S
O1005      C1016   1.287       .  A
O1005     Cd1010   2.135       .  S
Cd1006     O1008   2.054       .  S
Cd1006     O1009   1.955       .  S
Cd1007     O1011   2.088       .  S
Cd1007     O1020   2.033       .  S
Cd1007     O1009   1.973       .  S
O1008      C1018   1.271       .  A
O1009     Cd1010   1.983       .  S
Cd1010     O1012   2.118       .  S
O1011      C1018   1.276       .  A
C1013      O1017   1.283       .  A
C1014      C1032   1.478       .  S
C1016      C1556   1.479   1_545  S
C1019      C1089   1.497       .  S
C1019      O1020   1.276       .  A
N1021      C1025   1.361       .  A
N1021      C1022   1.364       .  A
N1021      C1290   1.432       .  S
C1022      C1176   1.496       .  S
C1022      C1023   1.391       .  A
C1023      C1024   1.365       .  A
C1023      H1026   1.083       .  S
C1024      C1025   1.374       .  A
C1024      H1027   1.083       .  S
C1025      C1231   1.478       .  S
N1028      C1032   1.359       .  A
N1028      C1029   1.367       .  A
N1028      C1073   1.444       .  S
C1029      C1199   1.480       .  S
C1029      C1030   1.384       .  A
C1030      C1031   1.366       .  A
C1030      H1033   1.082       .  S
C1031      C1032   1.378       .  A
C1031      H1034   1.082       .  S
O1035     Zn1041   2.002       .  S
O1035      C1051   1.270       .  A
C1036      C1205   1.472       .  S
C1036      O1052   1.275       .  A
C1036      O1289   1.274       .  A
O1037      C1290   1.279       .  A
O1037     Cd1044   2.084       .  S
O1038      C1056   1.281       .  A
O1038     Cd1047   2.106       .  S
O1039      C1053   1.279       .  A
O1039     Cd1043   2.079       .  S
O1040      C1051   1.273       .  A
O1040     Cd1043   2.063       .  S
Zn1041     O1052   2.021       .  S
Zn1041     O1054   1.997       .  S
Zn1041     O1046   1.926       .  S
O1042      C1293   1.276   1_554  A
O1042     Cd1047   2.074       .  S
Cd1043     O1045   2.109       .  S
Cd1043     O1046   1.993       .  S
Cd1044     O1048   2.052       .  S
Cd1044     O1057   2.099       .  S
Cd1044     O1286   1.967   1_554  S
O1045      C1055   1.279       .  A
O1046     Cd1284   1.967       .  S
O1046     Cd1287   1.993       .  S
Cd1047     O1049   2.078       .  S
Cd1047     O1286   1.993   1_554  S
O1048      C1295   1.276   1_554  A
O1049      C1276   1.274   1_554  A
C1050      N1261   1.432       .  S
C1050      O1277   1.279       .  A
C1050      O1054   1.274       .  A
C1051      C1079   1.457       .  S
C1053      C1473   1.471       .  S
C1053      O1282   1.276       .  A
C1055      C1142   1.470       .  S
C1055      O1288   1.276       .  A
C1056      C1074   1.482       .  S
C1056      O1057   1.279       .  A
O1058     Zn1064   2.061       .  S
O1058      C1074   1.282       .  A
C1059      O1075   1.282       .  A
C1059      O1072   1.268       .  A
O1060      C1073   1.276       .  A
O1060     Cd1067   2.092       .  S
O1061      C1079   1.269       .  A
O1061     Cd1070   2.028       .  S
O1062      C1076   1.288       .  A
O1062     Cd1066   2.142       .  S
O1063      C1074   1.284       .  A
O1063     Cd1066   2.112       .  S
Zn1064     O1075   2.077       .  S
Zn1064     O1077   2.034       .  S
Zn1064     O1069   1.899       .  S
O1065      C1076   1.266       .  A
O1065     Cd1070   2.026       .  S
Cd1066     O1068   2.177       .  S
Cd1066     O1069   1.982       .  S
Cd1067     O1071   2.040       .  S
Cd1067     O1080   2.091       .  S
Cd1067     O1069   1.971       .  S
O1068      C1078   1.291       .  A
O1069     Cd1070   1.944       .  S
Cd1070     O1072   2.020       .  S
O1071      C1078   1.277       .  A
C1073      O1077   1.282       .  A
C1076      C1496   1.479       .  S
C1078      C1149   1.499       .  S
C1079      O1080   1.277       .  A
N1081      C1085   1.360       .  A
N1081      C1082   1.370       .  A
N1081      C1590   1.441   1_545  S
C1082      C1083   1.388       .  A
C1083      C1084   1.354       .  A
C1083      H1086   1.084       .  S
C1084      C1085   1.374       .  A
C1084      H1087   1.083       .  S
C1085      C1171   1.461       .  S
N1088      C1092   1.364       .  A
N1088      C1089   1.366       .  A
N1088      C1613   1.434   1_545  S
C1089      C1090   1.390       .  A
C1090      C1091   1.364       .  A
C1090      H1093   1.083       .  S
C1091      C1092   1.374       .  A
C1091      H1094   1.083       .  S
C1092      C1194   1.485       .  S
O1095     Zn1101   2.057       .  S
O1095      C1111   1.283       .  A
C1096      C1145   1.468       .  S
C1096      O1352   1.281       .  A
C1096      O1109   1.265       .  A
O1097      C1110   1.267       .  A
O1097     Cd1104   2.019       .  S
O1098      C1116   1.267       .  A
O1098     Cd1107   2.037       .  S
O1099      C1353   1.294   1_554  A
O1099     Cd1103   2.177       .  S
O1100      C1111   1.287       .  A
O1100     Cd1103   2.127       .  S
Zn1101     O1114   2.087       .  S
Zn1101     O1346   1.922   1_554  S
O1102      C1113   1.265       .  A
O1102     Cd1107   2.021       .  S
Cd1103     O1105   2.207       .  S
Cd1103     O1346   1.986   1_554  S
Cd1104     O1108   1.967       .  S
Cd1104     O1117   2.074       .  S
Cd1104     O1106   1.936       .  S
O1105      C1355   1.294   1_554  A
O1106     Zn1341   1.922       .  S
O1106     Cd1343   1.986       .  S
O1106     Cd1107   1.946       .  S
O1108      C1115   1.263       .  A
C1110      N1561   1.441       .  S
C1110      O1354   1.286       .  A
C1111      C1139   1.484       .  S
O1112      C1336   1.281   1_554  A
C1113      O1339   1.294       .  A
O1114      C1350   1.286       .  A
C1115      O1345   1.294       .  A
C1116      C1134   1.454       .  S
C1116      O1117   1.273       .  A
O1118     Zn1124   1.989       .  S
O1118      C1134   1.269       .  A
C1119      C1152   1.486       .  S
C1119      O1135   1.276       .  A
C1119      O1132   1.276       .  A
O1120      C1133   1.282       .  A
O1120     Cd1127   2.087       .  S
O1121      C1139   1.281       .  A
O1121     Cd1130   2.103       .  S
O1122      C1136   1.276       .  A
O1122     Cd1126   2.053       .  S
O1123      C1134   1.273       .  A
O1123     Cd1126   2.063       .  S
Zn1124     O1137   1.997       .  S
Zn1124     O1129   1.920       .  S
O1125      C1136   1.276       .  A
O1125     Cd1130   2.063       .  S
Cd1126     O1128   2.102       .  S
Cd1126     O1129   1.989       .  S
Cd1127     O1131   2.090       .  S
Cd1127     O1140   2.115       .  S
Cd1127     O1129   1.972       .  S
O1128      C1138   1.277       .  A
O1129     Cd1130   1.995       .  S
O1131      C1138   1.280       .  A
C1133      N1568   1.434       .  S
C1133      O1137   1.274       .  A
C1139      O1140   1.282       .  A
N1141      C1145   1.355       .  A
N1141      C1142   1.362       .  A
N1141      C1650   1.436       .  S
C1142      C1143   1.385       .  A
C1143      C1144   1.363       .  A
C1143      H1146   1.083       .  S
C1144      C1145   1.375       .  A
C1144      H1147   1.083       .  S
N1148      C1152   1.364       .  A
N1148      C1149   1.365       .  A
N1148      C1673   1.437       .  S
C1149      C1150   1.391       .  A
C1150      C1151   1.366       .  A
C1150      H1153   1.085       .  S
C1151      C1152   1.375       .  A
C1151      H1154   1.083       .  S
O1155      C1171   1.268       .  A
C1156      C1198   1.480       .  S
C1156      O1172   1.269       .  A
C1156      O1169   1.286       .  A
O1157      C1410   1.272   1_554  A
O1157     Cd1164   2.089   1_565  S
O1158      C1416   1.292       .  A
O1158     Cd1167   2.185       .  S
O1160      C1411   1.271   1_554  A
Zn1161     O1172   1.982       .  S
Zn1161     O1174   2.001   1_545  S
Zn1161     O1166   1.890       .  S
O1162      C1173   1.293       .  A
O1162     Cd1167   2.166       .  S
Cd1163     O1165   2.037       .  S
Cd1163     O1406   1.999   1_554  S
Cd1164     O1168   2.067       .  S
Cd1164     O1177   2.024       .  S
Cd1164     O1406   1.991   1_554  S
O1165      C1175   1.270       .  A
O1166     Cd1403   1.998       .  S
O1166     Cd1404   1.991       .  S
O1166     Cd1167   2.018       .  S
Cd1167     O1169   2.154       .  S
O1168      C1175   1.272       .  A
C1170      N1621   1.436       .  S
C1170      O1397   1.272       .  A
C1170      O1174   1.276       .  A
C1171      O1400   1.271       .  A
C1175      C1179   1.448       .  S
C1176      O1398   1.292   1_554  A
C1176      O1177   1.274       .  A
O1178      C1194   1.275       .  A
C1179      O1195   1.269       .  A
C1179      O1192   1.271       .  A
O1180      C1193   1.284   1_545  A
O1180     Cd1187   2.111       .  S
O1181      C1199   1.278       .  A
O1181     Cd1190   2.097       .  S
O1182      C1196   1.274       .  A
O1182     Cd1186   2.055       .  S
O1183      C1194   1.277       .  A
Zn1184     O1195   1.994       .  S
Zn1184     O1197   1.989   1_545  S
Zn1184     O1189   1.920       .  S
O1185      C1196   1.275       .  A
O1185     Cd1190   2.057       .  S
Cd1186     O1188   2.095       .  S
Cd1186     O1189   1.989       .  S
Cd1187     O1191   2.120       .  S
Cd1187     O1200   2.106       .  S
Cd1187     O1189   1.986       .  S
O1188      C1198   1.282       .  A
O1189     Cd1190   1.983       .  S
Cd1190     O1192   2.055       .  S
O1191      C1198   1.282       .  A
C1193      N1628   1.437       .  S
C1193      O1197   1.273       .  A
C1199      O1200   1.282       .  A
N1201      C1202   1.360       .  A
N1201      C1230   1.425       .  S
C1202      C1355   1.494       .  S
C1203      C1204   1.363       .  A
C1203      H1206   1.083       .  S
C1204      C1205   1.374       .  A
C1204      H1207   1.082       .  S
N1208      C1212   1.357       .  A
N1208      C1209   1.366       .  A
N1208      C1253   1.441       .  S
C1209      C1378   1.479       .  S
C1209      C1210   1.384       .  A
C1210      C1211   1.366       .  A
C1210      H1213   1.081       .  S
C1211      C1212   1.377       .  A
C1211      H1214   1.082       .  S
C1212      C1299   1.473       .  S
O1215     Zn1221   2.025       .  S
C1216      C1258   1.461       .  S
C1216      O1232   1.272       .  A
C1216      O1229   1.277       .  A
O1217      C1230   1.273       .  A
O1217     Cd1224   2.037       .  S
O1218     Cd1227   2.151       .  S
O1219      C1233   1.276       .  A
O1219     Cd1223   2.067       .  S
O1220      C1231   1.275   1_556  A
O1220     Cd1223   2.087       .  S
Zn1221     O1232   1.999       .  S
Zn1221     O1234   2.011       .  S
O1222     Cd1227   2.089       .  S
Cd1223     O1225   2.119       .  S
Cd1223     O1226   2.001       .  S
Cd1224     O1228   2.095       .  S
Cd1224     O1237   2.015       .  S
Cd1224     O1226   1.944       .  S
O1225      C1235   1.281       .  A
Cd1227     O1229   2.084       .  S
O1228      C1235   1.277       .  A
C1233      C1773   1.471   1_545  S
C1235      C1239   1.487       .  S
C1236      C1322   1.484       .  S
C1236      O1237   1.270       .  A
O1238     Zn1244   2.076       .  S
O1238      C1254   1.282       .  A
C1239      O1255   1.282       .  A
C1239      O1252   1.285       .  A
O1240      C1253   1.274       .  A
O1240     Cd1247   2.077       .  S
O1241      C1259   1.290       .  A
O1241     Cd1250   2.174       .  S
O1242      C1256   1.267       .  A
O1242     Cd1246   2.035       .  S
O1243      C1254   1.271       .  A
O1243     Cd1246   2.032       .  S
Zn1244     O1255   2.071       .  S
Zn1244     O1257   2.036       .  S
Zn1244     O1249   1.906       .  S
O1245      C1256   1.287       .  A
O1245     Cd1250   2.135       .  S
Cd1246     O1248   2.053       .  S
Cd1246     O1249   1.955       .  S
Cd1247     O1251   2.089       .  S
Cd1247     O1260   2.033       .  S
Cd1247     O1249   1.973       .  S
O1248      C1258   1.271       .  A
O1249     Cd1250   1.983       .  S
Cd1250     O1252   2.117       .  S
O1251      C1258   1.276       .  A
C1253      O1257   1.283       .  A
C1254      C1272   1.478       .  S
C1256      C1796   1.479   1_545  S
C1259      C1329   1.497       .  S
C1259      O1260   1.276       .  A
N1261      C1265   1.361       .  A
N1261      C1262   1.364       .  A
C1262      C1416   1.496       .  S
C1262      C1263   1.391       .  A
C1263      C1264   1.365       .  A
C1263      H1266   1.083       .  S
C1264      C1265   1.374       .  A
C1264      H1267   1.083       .  S
N1268      C1272   1.359       .  A
N1268      C1269   1.367       .  A
N1268      C1313   1.444       .  S
C1269      C1439   1.480       .  S
C1269      C1270   1.384       .  A
C1270      C1271   1.366       .  A
C1270      H1273   1.082       .  S
C1271      C1272   1.378       .  A
C1271      H1274   1.082       .  S
O1275     Zn1281   2.002       .  S
O1275      C1291   1.270       .  A
C1276      O1292   1.275       .  A
O1277     Cd1284   2.085       .  S
O1278      C1296   1.281       .  A
O1278     Cd1287   2.106       .  S
O1279      C1293   1.279       .  A
O1279     Cd1283   2.078       .  S
O1280      C1291   1.273       .  A
O1280     Cd1283   2.063       .  S
Zn1281     O1292   2.021       .  S
Zn1281     O1294   1.997       .  S
Zn1281     O1286   1.926       .  S
O1282     Cd1287   2.074       .  S
Cd1283     O1285   2.109       .  S
Cd1283     O1286   1.993       .  S
Cd1284     O1288   2.052       .  S
Cd1284     O1297   2.099       .  S
O1285      C1295   1.279       .  A
Cd1287     O1289   2.078       .  S
C1290      O1294   1.274   1_554  A
C1291      C1319   1.457       .  S
C1293      C1713   1.471       .  S
C1295      C1382   1.470       .  S
C1296      C1314   1.483       .  S
C1296      O1297   1.279       .  A
O1298     Zn1304   2.061       .  S
O1298      C1314   1.282       .  A
C1299      O1315   1.282       .  A
C1299      O1312   1.268       .  A
O1300      C1313   1.276       .  A
O1300     Cd1307   2.093       .  S
O1301      C1319   1.269       .  A
O1301     Cd1310   2.028       .  S
O1302      C1316   1.288       .  A
O1302     Cd1306   2.143       .  S
O1303      C1314   1.284       .  A
O1303     Cd1306   2.112       .  S
Zn1304     O1315   2.077       .  S
Zn1304     O1317   2.035       .  S
Zn1304     O1309   1.899       .  S
O1305      C1316   1.266       .  A
O1305     Cd1310   2.026       .  S
Cd1306     O1308   2.177       .  S
Cd1306     O1309   1.982       .  S
Cd1307     O1311   2.041       .  S
Cd1307     O1320   2.091       .  S
Cd1307     O1309   1.970       .  S
O1308      C1318   1.291       .  A
O1309     Cd1310   1.944       .  S
Cd1310     O1312   2.020       .  S
O1311      C1318   1.277       .  A
C1313      O1317   1.282       .  A
C1316      C1736   1.479       .  S
C1318      C1389   1.499       .  S
C1319      O1320   1.277       .  A
N1321      C1325   1.360       .  A
N1321      C1322   1.370       .  A
N1321      C1830   1.441   1_546  S
C1322      C1323   1.388       .  A
C1323      C1324   1.354       .  A
C1323      H1326   1.084       .  S
C1324      C1325   1.374       .  A
C1324      H1327   1.083       .  S
C1325      C1411   1.461       .  S
N1328      C1332   1.364       .  A
N1328      C1329   1.366       .  A
N1328      C1853   1.434   1_545  S
C1329      C1330   1.390       .  A
C1330      C1331   1.363       .  A
C1330      H1333   1.083       .  S
C1331      C1332   1.374       .  A
C1331      H1334   1.083       .  S
C1332      C1434   1.485       .  S
O1335     Zn1341   2.057       .  S
O1335      C1351   1.283       .  A
C1336      C1385   1.468       .  S
C1336      O1349   1.265       .  A
O1337      C1350   1.267   1_556  A
O1337     Cd1344   2.019       .  S
O1338      C1356   1.267       .  A
O1338     Cd1347   2.037       .  S
O1339     Cd1343   2.178       .  S
O1340      C1351   1.287       .  A
O1340     Cd1343   2.128       .  S
Zn1341     O1354   2.087       .  S
O1342      C1353   1.265       .  A
O1342     Cd1347   2.020       .  S
Cd1343     O1345   2.207       .  S
Cd1344     O1348   1.966       .  S
Cd1344     O1357   2.074       .  S
Cd1344     O1346   1.936       .  S
O1346     Cd1347   1.946       .  S
O1348      C1355   1.263       .  A
C1350      N1801   1.441   1_554  S
C1351      C1379   1.484       .  S
C1356      C1374   1.454       .  S
C1356      O1357   1.273       .  A
O1358     Zn1364   1.988       .  S
O1358      C1374   1.269       .  A
C1359      C1392   1.487       .  S
C1359      O1375   1.276       .  A
C1359      O1372   1.276       .  A
O1360      C1373   1.282       .  A
O1360     Cd1367   2.087       .  S
O1361      C1379   1.281       .  A
O1361     Cd1370   2.103       .  S
O1362      C1376   1.276       .  A
O1362     Cd1366   2.053       .  S
O1363      C1374   1.273       .  A
O1363     Cd1366   2.063       .  S
Zn1364     O1377   1.998       .  S
Zn1364     O1369   1.919       .  S
O1365      C1376   1.276       .  A
O1365     Cd1370   2.064       .  S
Cd1366     O1368   2.102       .  S
Cd1366     O1369   1.989       .  S
Cd1367     O1371   2.091       .  S
Cd1367     O1380   2.115       .  S
Cd1367     O1369   1.972       .  S
O1368      C1378   1.277       .  A
O1369     Cd1370   1.995       .  S
O1371      C1378   1.280       .  A
C1373      N1808   1.434       .  S
C1373      O1377   1.274       .  A
C1379      O1380   1.282       .  A
N1381      C1385   1.355       .  A
N1381      C1382   1.362       .  A
N1381      C1890   1.436       .  S
C1382      C1383   1.385       .  A
C1383      C1384   1.363       .  A
C1383      H1386   1.083       .  S
C1384      C1385   1.375       .  A
C1384      H1387   1.084       .  S
N1388      C1392   1.364       .  A
N1388      C1389   1.365       .  A
N1388      C1913   1.437       .  S
C1389      C1390   1.391       .  A
C1390      C1391   1.366       .  A
C1390      H1393   1.085       .  S
C1391      C1392   1.375       .  A
C1391      H1394   1.083       .  S
O1395      C1411   1.268       .  A
C1396      C1438   1.480       .  S
C1396      O1412   1.269       .  A
C1396      O1409   1.286       .  A
O1397     Cd1404   2.089   1_565  S
O1398     Cd1407   2.185       .  S
Zn1401     O1412   1.983       .  S
Zn1401     O1414   2.001   1_545  S
Zn1401     O1406   1.890       .  S
O1402      C1413   1.293   1_556  A
O1402     Cd1407   2.165       .  S
Cd1403     O1405   2.037       .  S
Cd1404     O1408   2.067       .  S
Cd1404     O1417   2.024       .  S
O1405      C1415   1.270       .  A
O1406     Cd1407   2.018       .  S
Cd1407     O1409   2.154       .  S
O1408      C1415   1.272       .  A
C1410      N1861   1.436       .  S
C1410      O1414   1.276       .  A
C1415      C1419   1.448       .  S
C1416      O1417   1.274       .  A
O1418      C1434   1.275       .  A
C1419      O1435   1.269       .  A
C1419      O1432   1.271       .  A
O1420      C1433   1.284   1_545  A
O1420     Cd1427   2.112       .  S
O1421      C1439   1.278       .  A
O1421     Cd1430   2.097       .  S
O1422      C1436   1.274       .  A
O1422     Cd1426   2.056       .  S
O1423      C1434   1.276       .  A
Zn1424     O1435   1.994       .  S
Zn1424     O1437   1.988   1_545  S
Zn1424     O1429   1.920       .  S
O1425      C1436   1.275       .  A
O1425     Cd1430   2.057       .  S
Cd1426     O1428   2.095       .  S
Cd1426     O1429   1.989       .  S
Cd1427     O1431   2.120       .  S
Cd1427     O1440   2.106       .  S
Cd1427     O1429   1.986       .  S
O1428      C1438   1.282       .  A
O1429     Cd1430   1.983       .  S
Cd1430     O1432   2.055       .  S
O1431      C1438   1.282       .  A
C1433      N1868   1.437       .  S
C1433      O1437   1.273       .  A
C1439      O1440   1.282       .  A
N1441      C1685   1.360       .  A
N1441      C1442   1.360       .  A
N1441      C1470   1.425       .  S
C1442      C1595   1.494       .  S
C1442      C1683   1.393       .  A
C1443      C1682   1.393       .  A
C1443      C1444   1.363       .  A
C1443      H1446   1.083       .  S
C1444      C1445   1.374       .  A
C1444      H1447   1.082       .  S
C1445      N1681   1.360       .  A
C1445      C1756   1.472       .  S
N1448      C1452   1.357       .  A
N1448      C1449   1.366       .  A
N1448      C1493   1.441       .  S
C1449      C1618   1.479       .  S
C1449      C1450   1.384       .  A
C1450      C1451   1.366       .  A
C1450      H1453   1.081       .  S
C1451      C1452   1.377       .  A
C1451      H1454   1.082       .  S
C1452      C1539   1.474       .  S
O1455     Zn1461   2.025       .  S
O1455      C1711   1.275       .  A
C1456      C1498   1.461       .  S
C1456      O1472   1.272       .  A
C1456      O1469   1.277       .  A
O1457      C1470   1.273       .  A
O1457     Cd1464   2.037       .  S
O1458      C1716   1.283       .  A
O1458     Cd1467   2.151   1_556  S
O1459      C1473   1.276       .  A
O1459     Cd1463   2.067       .  S
O1460      C1471   1.275       .  A
O1460     Cd1463   2.088       .  S
Zn1461     O1472   1.999       .  S
Zn1461     O1474   2.011       .  S
Zn1461     O1706   1.922   1_554  S
O1462      C1713   1.281   1_554  A
O1462     Cd1467   2.088       .  S
Cd1463     O1465   2.120       .  S
Cd1463     O1466   2.001       .  S
Cd1464     O1468   2.096       .  S
Cd1464     O1477   2.015       .  S
Cd1464     O1466   1.944       .  S
O1465      C1475   1.281       .  A
O1466     Zn1701   1.922       .  S
O1466     Cd1707   2.000       .  S
Cd1467     O1469   2.084       .  S
Cd1467     O1706   2.001   1_554  S
O1468      C1475   1.277       .  A
C1470      O1714   1.274       .  A
C1471      C1745   1.479       .  S
C1471      O1695   1.275       .  A
C1473      O1702   1.281       .  A
O1474      C1710   1.274   1_554  A
C1475      C1479   1.488       .  S
C1476      C1562   1.484       .  S
C1476      O1698   1.283       .  A
C1476      O1477   1.270       .  A
O1478     Zn1484   2.076       .  S
O1478      C1494   1.282       .  A
C1479      O1495   1.282       .  A
C1479      O1492   1.285       .  A
O1480      C1493   1.274       .  A
O1480     Cd1487   2.077       .  S
O1481      C1499   1.290       .  A
O1481     Cd1490   2.175       .  S
O1482      C1496   1.267       .  A
O1482     Cd1486   2.035       .  S
O1483      C1494   1.271       .  A
O1483     Cd1486   2.032       .  S
Zn1484     O1495   2.071       .  S
Zn1484     O1497   2.035       .  S
Zn1484     O1489   1.906       .  S
O1485      C1496   1.287       .  A
O1485     Cd1490   2.135       .  S
Cd1486     O1488   2.054       .  S
Cd1486     O1489   1.955       .  S
Cd1487     O1491   2.089       .  S
Cd1487     O1500   2.033       .  S
Cd1487     O1489   1.973       .  S
O1488      C1498   1.271       .  A
O1489     Cd1490   1.983       .  S
Cd1490     O1492   2.118       .  S
O1491      C1498   1.276       .  A
C1493      O1497   1.283       .  A
C1494      C1512   1.478       .  S
C1499      C1569   1.497       .  S
C1499      O1500   1.276       .  A
N1501      C1505   1.361       .  A
N1501      C1502   1.364       .  A
N1501      C1770   1.432       .  S
C1502      C1656   1.496       .  S
C1502      C1503   1.391       .  A
C1503      C1504   1.365       .  A
C1503      H1506   1.083       .  S
C1504      C1505   1.374       .  A
C1504      H1507   1.083       .  S
C1505      C1711   1.478       .  S
N1508      C1512   1.359       .  A
N1508      C1509   1.367       .  A
N1508      C1553   1.444       .  S
C1509      C1679   1.480       .  S
C1509      C1510   1.384       .  A
C1510      C1511   1.366       .  A
C1510      H1513   1.082       .  S
C1511      C1512   1.378       .  A
C1511      H1514   1.082       .  S
O1515     Zn1521   2.002       .  S
O1515      C1531   1.270       .  A
C1516      C1685   1.472       .  S
C1516      O1532   1.275       .  A
C1516      O1769   1.274       .  A
O1517      C1770   1.279       .  A
O1517     Cd1524   2.084       .  S
O1518      C1536   1.281       .  A
O1518     Cd1527   2.106       .  S
O1519      C1533   1.279       .  A
O1519     Cd1523   2.079       .  S
O1520      C1531   1.273       .  A
O1520     Cd1523   2.063       .  S
Zn1521     O1532   2.021       .  S
Zn1521     O1534   1.997       .  S
Zn1521     O1526   1.926       .  S
O1522      C1773   1.276   1_554  A
O1522     Cd1527   2.074       .  S
Cd1523     O1525   2.109       .  S
Cd1523     O1526   1.993       .  S
Cd1524     O1528   2.052       .  S
Cd1524     O1537   2.099       .  S
Cd1524     O1766   1.967   1_554  S
O1525      C1535   1.279       .  A
O1526     Cd1764   1.967       .  S
O1526     Cd1767   1.993       .  S
Cd1527     O1529   2.078       .  S
Cd1527     O1766   1.993   1_554  S
O1528      C1775   1.276   1_554  A
O1529      C1756   1.274   1_554  A
C1530      N1741   1.432       .  S
C1530      O1757   1.279       .  A
C1530      O1534   1.274       .  A
C1531      C1559   1.457       .  S
C1533      O1762   1.276       .  A
C1535      C1622   1.470       .  S
C1535      O1768   1.276       .  A
C1536      C1554   1.482       .  S
C1536      O1537   1.279       .  A
O1538     Zn1544   2.061       .  S
O1538      C1554   1.282       .  A
C1539      O1555   1.282       .  A
C1539      O1552   1.268       .  A
O1540      C1553   1.276       .  A
O1540     Cd1547   2.092       .  S
O1541      C1559   1.269       .  A
O1541     Cd1550   2.028       .  S
O1542      C1556   1.288       .  A
O1542     Cd1546   2.142       .  S
O1543      C1554   1.284       .  A
O1543     Cd1546   2.112       .  S
Zn1544     O1555   2.077       .  S
Zn1544     O1557   2.035       .  S
Zn1544     O1549   1.899       .  S
O1545      C1556   1.266       .  A
O1545     Cd1550   2.026       .  S
Cd1546     O1548   2.177       .  S
Cd1546     O1549   1.982       .  S
Cd1547     O1551   2.040       .  S
Cd1547     O1560   2.091       .  S
Cd1547     O1549   1.971       .  S
O1548      C1558   1.291       .  A
O1549     Cd1550   1.944       .  S
Cd1550     O1552   2.020       .  S
O1551      C1558   1.277       .  A
C1553      O1557   1.282       .  A
C1558      C1629   1.499       .  S
C1559      O1560   1.277       .  A
N1561      C1565   1.360       .  A
N1561      C1562   1.370       .  A
C1562      C1563   1.388       .  A
C1563      C1564   1.354       .  A
C1563      H1566   1.084       .  S
C1564      C1565   1.374       .  A
C1564      H1567   1.083       .  S
C1565      C1651   1.461       .  S
N1568      C1572   1.364       .  A
N1568      C1569   1.366       .  A
C1569      C1570   1.390       .  A
C1570      C1571   1.364       .  A
C1570      H1573   1.083       .  S
C1571      C1572   1.374       .  A
C1571      H1574   1.083       .  S
C1572      C1674   1.485       .  S
O1575     Zn1581   2.057       .  S
O1575      C1591   1.283       .  A
C1576      C1625   1.468       .  S
C1576      O1832   1.281       .  A
C1576      O1589   1.265       .  A
O1577      C1590   1.267       .  A
O1577     Cd1584   2.019       .  S
O1578      C1596   1.267       .  A
O1578     Cd1587   2.037       .  S
O1579      C1833   1.294   1_554  A
O1579     Cd1583   2.177       .  S
O1580      C1591   1.287       .  A
O1580     Cd1583   2.127       .  S
Zn1581     O1594   2.087       .  S
Zn1581     O1826   1.922   1_554  S
O1582      C1593   1.265       .  A
O1582     Cd1587   2.021       .  S
Cd1583     O1585   2.207       .  S
Cd1583     O1826   1.986   1_554  S
Cd1584     O1588   1.967       .  S
Cd1584     O1597   2.074       .  S
Cd1584     O1586   1.936       .  S
O1585      C1835   1.294   1_554  A
O1586     Zn1821   1.922       .  S
O1586     Cd1823   1.986       .  S
O1586     Cd1587   1.946       .  S
O1588      C1595   1.263       .  A
C1590      O1834   1.286       .  A
C1591      C1619   1.484       .  S
O1592      C1816   1.281   1_554  A
C1593      O1819   1.294       .  A
O1594      C1830   1.286       .  A
C1595      O1825   1.294       .  A
C1596      C1614   1.454       .  S
C1596      O1597   1.273       .  A
O1598     Zn1604   1.989       .  S
O1598      C1614   1.269       .  A
C1599      C1632   1.486       .  S
C1599      O1615   1.276       .  A
C1599      O1612   1.276       .  A
O1600      C1613   1.282       .  A
O1600     Cd1607   2.087       .  S
O1601      C1619   1.281       .  A
O1601     Cd1610   2.103       .  S
O1602      C1616   1.276       .  A
O1602     Cd1606   2.053       .  S
O1603      C1614   1.273       .  A
O1603     Cd1606   2.063       .  S
Zn1604     O1617   1.997       .  S
Zn1604     O1609   1.920       .  S
O1605      C1616   1.276       .  A
O1605     Cd1610   2.063       .  S
Cd1606     O1608   2.102       .  S
Cd1606     O1609   1.989       .  S
Cd1607     O1611   2.090       .  S
Cd1607     O1620   2.115       .  S
Cd1607     O1609   1.972       .  S
O1608      C1618   1.277       .  A
O1609     Cd1610   1.995       .  S
O1611      C1618   1.280       .  A
C1613      O1617   1.274       .  A
C1619      O1620   1.282       .  A
N1621      C1625   1.355       .  A
N1621      C1622   1.362       .  A
C1622      C1623   1.385       .  A
C1623      C1624   1.363       .  A
C1623      H1626   1.083       .  S
C1624      C1625   1.375       .  A
C1624      H1627   1.083       .  S
N1628      C1632   1.364       .  A
N1628      C1629   1.365       .  A
C1629      C1630   1.391       .  A
C1630      C1631   1.366       .  A
C1630      H1633   1.085       .  S
C1631      C1632   1.375       .  A
C1631      H1634   1.083       .  S
O1635      C1651   1.268       .  A
C1636      C1678   1.480       .  S
C1636      O1652   1.269       .  A
C1636      O1649   1.286       .  A
O1637      C1890   1.272   1_554  A
O1637     Cd1644   2.089       .  S
O1638      C1896   1.292       .  A
O1638     Cd1647   2.185       .  S
O1640      C1891   1.271   1_554  A
Zn1641     O1652   1.982       .  S
Zn1641     O1654   2.001       .  S
Zn1641     O1646   1.890       .  S
O1642      C1653   1.293       .  A
O1642     Cd1647   2.166       .  S
Cd1643     O1645   2.037       .  S
Cd1643     O1886   1.999   1_554  S
Cd1644     O1648   2.067       .  S
Cd1644     O1657   2.024       .  S
Cd1644     O1886   1.991   1_554  S
O1645      C1655   1.270       .  A
O1646     Cd1883   1.998       .  S
O1646     Cd1884   1.991       .  S
O1646     Cd1647   2.018       .  S
Cd1647     O1649   2.154       .  S
O1648      C1655   1.272       .  A
C1650      O1877   1.272       .  A
C1650      O1654   1.276       .  A
C1651      O1880   1.271       .  A
C1655      C1659   1.448       .  S
C1656      O1878   1.292   1_554  A
C1656      O1657   1.274       .  A
O1658      C1674   1.275       .  A
C1659      O1675   1.269       .  A
C1659      O1672   1.271       .  A
O1660      C1673   1.284       .  A
O1660     Cd1667   2.111       .  S
O1661      C1679   1.278       .  A
O1661     Cd1670   2.097       .  S
O1662      C1676   1.274       .  A
O1662     Cd1666   2.055       .  S
O1663      C1674   1.277       .  A
Zn1664     O1675   1.994       .  S
Zn1664     O1677   1.989       .  S
Zn1664     O1669   1.920       .  S
O1665      C1676   1.275       .  A
O1665     Cd1670   2.057       .  S
Cd1666     O1668   2.095       .  S
Cd1666     O1669   1.989       .  S
Cd1667     O1671   2.120       .  S
Cd1667     O1680   2.106       .  S
Cd1667     O1669   1.986       .  S
O1668      C1678   1.282       .  A
O1669     Cd1670   1.983       .  S
Cd1670     O1672   2.055       .  S
O1671      C1678   1.282       .  A
C1673      O1677   1.273       .  A
C1679      O1680   1.282       .  A
N1681      C1682   1.360       .  A
N1681      C1710   1.425       .  S
C1682      C1835   1.494       .  S
C1683      C1684   1.363       .  A
C1683      H1686   1.083       .  S
C1684      C1685   1.374       .  A
C1684      H1687   1.082       .  S
N1688      C1692   1.357       .  A
N1688      C1689   1.366       .  A
N1688      C1733   1.441       .  S
C1689      C1858   1.479       .  S
C1689      C1690   1.384       .  A
C1690      C1691   1.366       .  A
C1690      H1693   1.081       .  S
C1691      C1692   1.377       .  A
C1691      H1694   1.082       .  S
C1692      C1779   1.473       .  S
O1695     Zn1701   2.025       .  S
C1696      C1738   1.461       .  S
C1696      O1712   1.272       .  A
C1696      O1709   1.277       .  A
O1697      C1710   1.273       .  A
O1697     Cd1704   2.037       .  S
O1698     Cd1707   2.151       .  S
O1699      C1713   1.276       .  A
O1699     Cd1703   2.067       .  S
O1700      C1711   1.275   1_556  A
O1700     Cd1703   2.087       .  S
Zn1701     O1712   1.999       .  S
Zn1701     O1714   2.011       .  S
O1702     Cd1707   2.089       .  S
Cd1703     O1705   2.119       .  S
Cd1703     O1706   2.001       .  S
Cd1704     O1708   2.095       .  S
Cd1704     O1717   2.015       .  S
Cd1704     O1706   1.944       .  S
O1705      C1715   1.281       .  A
Cd1707     O1709   2.084       .  S
O1708      C1715   1.277       .  A
C1715      C1719   1.487       .  S
C1716      C1802   1.484       .  S
C1716      O1717   1.270       .  A
O1718     Zn1724   2.076       .  S
O1718      C1734   1.282       .  A
C1719      O1735   1.282       .  A
C1719      O1732   1.285       .  A
O1720      C1733   1.274       .  A
O1720     Cd1727   2.077       .  S
O1721      C1739   1.290       .  A
O1721     Cd1730   2.174       .  S
O1722      C1736   1.267       .  A
O1722     Cd1726   2.035       .  S
O1723      C1734   1.271       .  A
O1723     Cd1726   2.032       .  S
Zn1724     O1735   2.071       .  S
Zn1724     O1737   2.036       .  S
Zn1724     O1729   1.906       .  S
O1725      C1736   1.287       .  A
O1725     Cd1730   2.135       .  S
Cd1726     O1728   2.053       .  S
Cd1726     O1729   1.955       .  S
Cd1727     O1731   2.089       .  S
Cd1727     O1740   2.033       .  S
Cd1727     O1729   1.973       .  S
O1728      C1738   1.271       .  A
O1729     Cd1730   1.983       .  S
Cd1730     O1732   2.117       .  S
O1731      C1738   1.276       .  A
C1733      O1737   1.283       .  A
C1734      C1752   1.478       .  S
C1739      C1809   1.497       .  S
C1739      O1740   1.276       .  A
N1741      C1745   1.361       .  A
N1741      C1742   1.364       .  A
C1742      C1896   1.496       .  S
C1742      C1743   1.391       .  A
C1743      C1744   1.365       .  A
C1743      H1746   1.083       .  S
C1744      C1745   1.374       .  A
C1744      H1747   1.083       .  S
N1748      C1752   1.359       .  A
N1748      C1749   1.367       .  A
N1748      C1793   1.444       .  S
C1749      C1919   1.480       .  S
C1749      C1750   1.384       .  A
C1750      C1751   1.366       .  A
C1750      H1753   1.082       .  S
C1751      C1752   1.378       .  A
C1751      H1754   1.082       .  S
O1755     Zn1761   2.002       .  S
O1755      C1771   1.270       .  A
C1756      O1772   1.275       .  A
O1757     Cd1764   2.084       .  S
O1758      C1776   1.281       .  A
O1758     Cd1767   2.106       .  S
O1759      C1773   1.279       .  A
O1759     Cd1763   2.078       .  S
O1760      C1771   1.273       .  A
O1760     Cd1763   2.063       .  S
Zn1761     O1772   2.021       .  S
Zn1761     O1774   1.997       .  S
Zn1761     O1766   1.926       .  S
O1762     Cd1767   2.074       .  S
Cd1763     O1765   2.109       .  S
Cd1763     O1766   1.993       .  S
Cd1764     O1768   2.052       .  S
Cd1764     O1777   2.099       .  S
O1765      C1775   1.279       .  A
Cd1767     O1769   2.078       .  S
C1770      O1774   1.274   1_554  A
C1771      C1799   1.457       .  S
C1775      C1862   1.470       .  S
C1776      C1794   1.483       .  S
C1776      O1777   1.279       .  A
O1778     Zn1784   2.061       .  S
O1778      C1794   1.282       .  A
C1779      O1795   1.282       .  A
C1779      O1792   1.268       .  A
O1780      C1793   1.276       .  A
O1780     Cd1787   2.093       .  S
O1781      C1799   1.269       .  A
O1781     Cd1790   2.028       .  S
O1782      C1796   1.288       .  A
O1782     Cd1786   2.143       .  S
O1783      C1794   1.284       .  A
O1783     Cd1786   2.112       .  S
Zn1784     O1795   2.077       .  S
Zn1784     O1797   2.034       .  S
Zn1784     O1789   1.899       .  S
O1785      C1796   1.266       .  A
O1785     Cd1790   2.027       .  S
Cd1786     O1788   2.177       .  S
Cd1786     O1789   1.982       .  S
Cd1787     O1791   2.041       .  S
Cd1787     O1800   2.091       .  S
Cd1787     O1789   1.970       .  S
O1788      C1798   1.291       .  A
O1789     Cd1790   1.944       .  S
Cd1790     O1792   2.020       .  S
O1791      C1798   1.277       .  A
C1793      O1797   1.282       .  A
C1798      C1869   1.499       .  S
C1799      O1800   1.277       .  A
N1801      C1805   1.360       .  A
N1801      C1802   1.370       .  A
C1802      C1803   1.388       .  A
C1803      C1804   1.354       .  A
C1803      H1806   1.084       .  S
C1804      C1805   1.374       .  A
C1804      H1807   1.083       .  S
C1805      C1891   1.461       .  S
N1808      C1812   1.364       .  A
N1808      C1809   1.366       .  A
C1809      C1810   1.390       .  A
C1810      C1811   1.363       .  A
C1810      H1813   1.083       .  S
C1811      C1812   1.374       .  A
C1811      H1814   1.083       .  S
C1812      C1914   1.485       .  S
O1815     Zn1821   2.057       .  S
O1815      C1831   1.283       .  A
C1816      C1865   1.468       .  S
C1816      O1829   1.265       .  A
O1817      C1830   1.267   1_556  A
O1817     Cd1824   2.019       .  S
O1818      C1836   1.267       .  A
O1818     Cd1827   2.037       .  S
O1819     Cd1823   2.178       .  S
O1820      C1831   1.287       .  A
O1820     Cd1823   2.128       .  S
Zn1821     O1834   2.087       .  S
O1822      C1833   1.265       .  A
O1822     Cd1827   2.020       .  S
Cd1823     O1825   2.207       .  S
Cd1824     O1828   1.966       .  S
Cd1824     O1837   2.074       .  S
Cd1824     O1826   1.936       .  S
O1826     Cd1827   1.946       .  S
O1828      C1835   1.263       .  A
C1831      C1859   1.484       .  S
C1836      C1854   1.454       .  S
C1836      O1837   1.273       .  A
O1838     Zn1844   1.988       .  S
O1838      C1854   1.269       .  A
C1839      C1872   1.487       .  S
C1839      O1855   1.276       .  A
C1839      O1852   1.276       .  A
O1840      C1853   1.282       .  A
O1840     Cd1847   2.087       .  S
O1841      C1859   1.281       .  A
O1841     Cd1850   2.103       .  S
O1842      C1856   1.276       .  A
O1842     Cd1846   2.053       .  S
O1843      C1854   1.273       .  A
O1843     Cd1846   2.063       .  S
Zn1844     O1857   1.998       .  S
Zn1844     O1849   1.919       .  S
O1845      C1856   1.276       .  A
O1845     Cd1850   2.064       .  S
Cd1846     O1848   2.102       .  S
Cd1846     O1849   1.989       .  S
Cd1847     O1851   2.090       .  S
Cd1847     O1860   2.115       .  S
Cd1847     O1849   1.972       .  S
O1848      C1858   1.277       .  A
O1849     Cd1850   1.995       .  S
O1851      C1858   1.280       .  A
C1853      O1857   1.274       .  A
C1859      O1860   1.282       .  A
N1861      C1865   1.355       .  A
N1861      C1862   1.362       .  A
C1862      C1863   1.385       .  A
C1863      C1864   1.363       .  A
C1863      H1866   1.083       .  S
C1864      C1865   1.375       .  A
C1864      H1867   1.083       .  S
N1868      C1872   1.364       .  A
N1868      C1869   1.365       .  A
C1869      C1870   1.391       .  A
C1870      C1871   1.366       .  A
C1870      H1873   1.085       .  S
C1871      C1872   1.375       .  A
C1871      H1874   1.083       .  S
O1875      C1891   1.268       .  A
C1876      C1918   1.480       .  S
C1876      O1892   1.269       .  A
C1876      O1889   1.286       .  A
O1877     Cd1884   2.089       .  S
O1878     Cd1887   2.185       .  S
Zn1881     O1892   1.983       .  S
Zn1881     O1894   2.001       .  S
Zn1881     O1886   1.890       .  S
O1882      C1893   1.293   1_556  A
O1882     Cd1887   2.165       .  S
Cd1883     O1885   2.037       .  S
Cd1884     O1888   2.067       .  S
Cd1884     O1897   2.024       .  S
O1885      C1895   1.270       .  A
O1886     Cd1887   2.018       .  S
Cd1887     O1889   2.154       .  S
O1888      C1895   1.272       .  A
C1890      O1894   1.276       .  A
C1895      C1899   1.448       .  S
C1896      O1897   1.274       .  A
O1898      C1914   1.275       .  A
C1899      O1915   1.269       .  A
C1899      O1912   1.271       .  A
O1900      C1913   1.284       .  A
O1900     Cd1907   2.112       .  S
O1901      C1919   1.278       .  A
O1901     Cd1910   2.097       .  S
O1902      C1916   1.274       .  A
O1902     Cd1906   2.056       .  S
O1903      C1914   1.276       .  A
Zn1904     O1915   1.994       .  S
Zn1904     O1917   1.988       .  S
Zn1904     O1909   1.920       .  S
O1905      C1916   1.275       .  A
O1905     Cd1910   2.057       .  S
Cd1906     O1908   2.095       .  S
Cd1906     O1909   1.989       .  S
Cd1907     O1911   2.120       .  S
Cd1907     O1920   2.106       .  S
Cd1907     O1909   1.986       .  S
O1908      C1918   1.282       .  A
O1909     Cd1910   1.983       .  S
Cd1910     O1912   2.055       .  S
O1911      C1918   1.282       .  A
C1913      O1917   1.273       .  A
C1919      O1920   1.282       .  A
