geometry optimzed in LAMMPS
_audit_creation_date              2020-11-30 
_audit_creation_method            'lammps2cif' 
_symmetry_space_group_name_H-M    'P1' 
_symmetry_Int_Tables_number       1 
_symmetry_cell_setting            triclinic 
loop_ 
_symmetry_equiv_pos_as_xyz 
  x,y,z 
_cell_length_a                    43.54784759 
_cell_length_b                    36.92394239914429 
_cell_length_c                    34.95444928142101 
_cell_angle_alpha                 92.47163449658247 
_cell_angle_beta                  91.94736589890601 
_cell_angle_gamma                 125.87397456959032 
loop_ 
_atom_site_label 
_atom_site_type_symbol 
_atom_site_fract_x 
_atom_site_fract_y 
_atom_site_fract_z 
_atom_site_charge 
C1          C  0.33708308  0.18417882  0.04641733     0.31900
C2          C  0.33820926  0.16966709  0.46655190     0.31900
C3          C  0.29835319  0.15538525  0.02317339    -0.04300
C4          C  0.35567625  0.23040045  0.03009538    -0.05100
C5          C  0.35941881  0.16870086  0.02742667    -0.04900
C6          C  0.29962107  0.15091449  0.48292863    -0.04300
C7          C  0.36430964  0.21600623  0.48929026    -0.05100
C8          C  0.35089378  0.14318413  0.48641335    -0.05000
C9          C  0.26330944  0.13409109  0.46842632    -0.30300
N10         N  0.24138695  0.12456148  0.49846442     0.16200
C11         C  0.26225562  0.14087534  0.03161107    -0.30300
H12         H  0.25271084  0.13996502  0.05999914     0.18100
C13         C  0.38946138  0.26000488  0.48074056    -0.29300
N14         N  0.39395046  0.30100330  0.01541927     0.14900
C15         C  0.37996648  0.27445366  0.04492111    -0.29300
C16         C  0.37348259  0.12953098  0.47663327    -0.29600
N17         N  0.38528855  0.12077650  0.50897868     0.15400
H18         H  0.38271530  0.12861918  0.44849428     0.18000
C19         C  0.38126126  0.15512160  0.04004459    -0.29600
H20         H  0.38704315  0.15147726  0.06942468     0.18000
H21         H  0.38905841  0.28657395  0.07476396     0.18000
H22         H  0.25367492  0.12953326  0.43848962     0.18100
H23         H  0.39703915  0.27218618  0.45252265     0.18000
C24         C  0.34096865  0.17306500  0.29581057     0.31900
C25         C  0.33997484  0.17585434  0.21664929     0.31900
C26         C  0.30293026  0.15631737  0.27464336    -0.04300
C27         C  0.36814122  0.21974512  0.28052411    -0.05100
C28         C  0.35236420  0.14581031  0.27364195    -0.04900
C29         C  0.30232814  0.15768077  0.23481652    -0.04300
C30         C  0.36769159  0.22118910  0.24046836    -0.05100
C31         C  0.35190702  0.14721219  0.23341686    -0.05000
C32         C  0.26574978  0.14133283  0.22189906    -0.30300
N33         N  0.24463842  0.13034750  0.25275825     0.16200
C34         C  0.26685839  0.13921691  0.28500447    -0.30300
H35         H  0.25738246  0.13343724  0.31381013     0.18100
C36         C  0.39282821  0.26566652  0.23311138    -0.29300
N37         N  0.40778760  0.29074900  0.26708101     0.14900
C38         C  0.39339003  0.26335982  0.29614805    -0.29300
C39         C  0.37256089  0.13195352  0.22057580    -0.29600
N40         N  0.38423679  0.12035673  0.25105665     0.15400
H41         H  0.38065423  0.13189023  0.19166303     0.18000
C42         C  0.37335469  0.12998104  0.28344119    -0.29600
H43         H  0.38237054  0.12827118  0.31209705     0.18000
H44         H  0.40024025  0.27465657  0.32633018     0.18000
H45         H  0.25525314  0.13752181  0.19241005     0.18100
H46         H  0.39930095  0.27915383  0.20527428     0.18000
C47         C  0.13048416  0.07764491  0.00375224     0.78400
Tb48       Tb  0.46350863  0.02430219  0.03633994     1.80700
O49         O  0.12081706  0.07849167  0.03706510    -0.49700
O50         O  0.07918709  0.49572886  0.07619083    -0.57100
C51         C  0.05764263  0.11429296  0.04394473     0.94200
O52         O  0.45665984  0.08153745  0.05374492    -0.56600
Tb53       Tb  0.05534605  0.02422476  0.02411781     1.78100
O54         O  0.39973153  0.47378599  0.02735530    -0.57100
O55         O  0.99888615  0.45300737  0.01312897    -0.75900
O56         O  0.07273275  0.09395319  0.04937044    -0.75300
O57         O  0.03496427  0.03831279  0.47852710    -0.60500
C58         C  0.46593683  0.43627906  0.02613164     0.93800
O59         O  0.50622193  0.05333578  0.08913237    -0.72500
C60         C  0.38878834  0.97158133  0.05794386     0.77200
C61         C  0.08033200  0.47082722  0.05128659     0.78200
O62         O  0.10273216  0.05216929  0.97941917    -0.57700
O63         O  0.06716647  0.46999534  0.01835114    -0.49700
O64         O  0.46579501  0.98183467  0.47352483    -0.75700
O65         O  0.03792508  0.01556938  0.08629351    -0.59700
C66         C  0.02380882  0.03065983  0.10674947     0.92000
C67         C  0.00214525  0.02022752  0.46198144     0.93200
C68         C  0.43851728  0.06109003  0.52039400     0.77600
O69         O  0.41685822  0.99810392  0.08166644    -0.49100
O70         O  0.45094151  0.54531030  0.49620002    -0.50200
O71         O  0.45676747  0.45770864  0.04618975    -0.63100
O72         O  0.02219912  0.09450157  0.03565086    -0.64200
C73         C  0.13285524  0.07113907  0.26121686     0.78400
Tb74       Tb  0.46086502  0.00627893  0.27745782     1.80700
O75         O  0.12235096  0.07306625  0.29386222    -0.49700
O76         O  0.08669023  0.49330504  0.33393780    -0.57100
C77         C  0.05754129  0.10776665  0.29125213     0.94200
O78         O  0.45000220  0.06057810  0.29244494    -0.56600
Tb79       Tb  0.05693427  0.01826053  0.27935322     1.78100
O80         O  0.40595942  0.46013089  0.26561181    -0.57100
O81         O  0.00103673  0.44384834  0.29875580    -0.75900
O82         O  0.07131950  0.08752101  0.30278112    -0.75300
O83         O  0.03543267  0.03468937  0.22574859    -0.60500
C84         C  0.47308389  0.42667654  0.27807143     0.93800
O85         O  0.48332983  0.00078642  0.33650518    -0.72500
C86         C  0.38457143  0.95098830  0.29380089     0.77200
C87         C  0.08672242  0.46435871  0.31337189     0.78200
O88         O  0.10569880  0.04478560  0.23671008    -0.57700
O89         O  0.07119488  0.45675746  0.28011284    -0.49700
O90         O  0.48952274  0.01339651  0.22071951    -0.75700
O91         O  0.03414707  0.00796632  0.33959003    -0.59700
C92         C  0.02071613  0.02507206  0.35845929     0.92000
C93         C  0.00249502  0.01534464  0.20910725     0.93200
C94         C  0.43751292  0.06054886  0.25940011     0.77600
O95         O  0.41132919  0.97480205  0.31940057    -0.49100
O96         O  0.44803136  0.54194658  0.23775499    -0.50200
O97         O  0.46042412  0.44556952  0.26085640    -0.63100
O98         O  0.02353855  0.08749944  0.27697767    -0.64200
C99         C  0.18656978  0.36790150  0.02438865     0.31900
C100        C  0.18477774  0.36582439  0.10356592     0.31900
C101        C  0.16802134  0.38790638  0.04406883    -0.04300
C102        C  0.16499851  0.32106031  0.04002364    -0.05100
C103        C  0.22533649  0.39226450  0.04779630    -0.04900
C104        C  0.16665158  0.38664287  0.08402750    -0.04300
C105        C  0.16375256  0.32000768  0.08003624    -0.05100
C106        C  0.22428924  0.39158903  0.08781613    -0.05000
C107        C  0.14534306  0.40176229  0.09453958    -0.30300
N108        N  0.13518489  0.41315630  0.06264550     0.16200
C109        C  0.14865203  0.40475230  0.03172254    -0.30300
H110        H  0.14397759  0.40963240  0.00235787     0.18100
C111        C  0.14082123  0.27547579  0.08767401    -0.29300
N112        N  0.12903885  0.24998653  0.05397824     0.14900
C113        C  0.14358633  0.27708204  0.02472107    -0.29300
C114        C  0.26051888  0.40921015  0.10309019    -0.29600
N115        N  0.28303120  0.41956580  0.07360647     0.15400
H116        H  0.26937182  0.41215857  0.13305912     0.18000
C117        C  0.26199286  0.40839916  0.04003177    -0.29600
H118        H  0.27252925  0.40964286  0.01219253     0.18000
H119        H  0.13815772  0.26546293  0.99464914     0.18000
H120        H  0.13678566  0.40325882  0.12290060     0.18100
H121        H  0.13223775  0.26236112  0.11545854     0.18000
C122        C  0.18821765  0.36200616  0.27438110     0.31900
C123        C  0.19152617  0.35849871  0.35336988     0.31900
C124        C  0.17689652  0.38830366  0.29815754    -0.04300
C125        C  0.16229336  0.31506607  0.28946673    -0.05100
C126        C  0.22706929  0.37923446  0.29407357    -0.04900
C127        C  0.17900264  0.38676710  0.33816021    -0.04300
C128        C  0.16427105  0.31321472  0.32939508    -0.05100
C129        C  0.22900293  0.37726107  0.33393338    -0.05000
C130        C  0.15983987  0.40271536  0.35354010    -0.30300
N131        N  0.14591849  0.41324680  0.32430597     0.14400
C132        C  0.15485907  0.40327490  0.29066490    -0.30300
H133        H  0.14358595  0.40391706  0.26285820     0.18100
C134        C  0.14179911  0.26844495  0.33643268    -0.29300
N135        N  0.12581528  0.24366820  0.30245395     0.14900
C136        C  0.13791520  0.27144071  0.27360996    -0.29300
C137        C  0.26525823  0.39006701  0.34441245    -0.29600
N138        N  0.28493547  0.40064204  0.31250102     0.15400
H139        H  0.27643520  0.39077740  0.37276089     0.18000
C140        C  0.26205463  0.39412140  0.28170168    -0.29600
H141        H  0.27014541  0.39919447  0.25239399     0.18000
H142        H  0.13015408  0.26050156  0.24340978     0.18000
H143        H  0.15422521  0.40365999  0.38337208     0.18100
H144        H  0.13809798  0.25464074  0.36399624     0.18000
C145        C  0.22440109  0.39067315  0.46165555    -0.11400
C146        C  0.19195377  0.35792041  0.47989768     0.10700
C147        C  0.15832525  0.32857196  0.45615800    -0.11400
C148        C  0.15833732  0.32849663  0.41588438    -0.11400
C149        C  0.19205150  0.35752145  0.39757998     0.10700
C150        C  0.22447180  0.39040510  0.42141098    -0.11400
H151        H  0.24946663  0.41809316  0.47824470     0.14700
H152        H  0.13165418  0.30595901  0.46876769     0.14700
H153        H  0.13155047  0.30617188  0.39911917     0.14700
H154        H  0.24965438  0.41735248  0.40916168     0.14700
C155        C  0.18939646  0.39817055  0.21184016    -0.11400
C156        C  0.18827139  0.36413465  0.23015690     0.10700
C157        C  0.19098114  0.33424211  0.20664310    -0.11400
C158        C  0.19003010  0.33494157  0.16636806    -0.11400
C159        C  0.18584015  0.36520241  0.14785510     0.10700
C160        C  0.18819804  0.39867210  0.17160985    -0.11400
H161        H  0.19299032  0.42591768  0.22835966     0.14700
H162        H  0.19400647  0.31023742  0.21947090     0.14700
H163        H  0.19294268  0.31185248  0.14975326     0.14700
H164        H  0.19058873  0.42649951  0.15935763     0.14700
C165        C  0.08155157  0.15605371  0.29464958    -0.11400
C166        C  0.10191047  0.19658198  0.29793124    -0.12900
C167        C  0.35651327  0.43392411  0.30757785    -0.11400
C168        C  0.32331573  0.41733446  0.31116355    -0.12900
C169        C  0.12370339  0.42936716  0.32713446    -0.11400
C170        C  0.10551028  0.44446644  0.32478710    -0.12900
C171        C  0.08225142  0.16252345  0.04736809    -0.11400
C172        C  0.10387282  0.20297514  0.05010881    -0.12900
C173        C  0.32180139  0.43767980  0.07612863    -0.11400
C174        C  0.35506782  0.45447279  0.07328367    -0.12900
C175        C  0.09742056  0.44791172  0.05869783    -0.11400
C176        C  0.11425835  0.43111779  0.06151709    -0.12900
C177        C  0.02531346  0.02710413  0.39965112    -0.14500
C178        C  0.99902974  0.02313735  0.42114965    -0.29700
H179        H  0.05409352  0.54715722  0.41161576     0.14500
H180        H  0.97371921  0.01842626  0.40824813     0.15100
C181        C  0.99912936  0.01763798  0.16830011    -0.14500
C182        C  0.02847448  0.03060986  0.14751368    -0.29700
H183        H  0.97194769  0.00729717  0.15485841     0.14500
H184        H  0.50247861  0.04843390  0.16080422     0.15100
C185        C  0.42140402  0.08464963  0.25193607    -0.11400
C186        C  0.40508646  0.10221307  0.25004207    -0.12900
C187        C  0.43131727  0.33787852  0.27142054    -0.11400
C188        C  0.45066738  0.37840991  0.27481570    -0.12900
C189        C  0.20571375  0.11154030  0.25193477    -0.11400
C190        C  0.17223122  0.09432576  0.25388005    -0.12900
C191        C  0.42320195  0.08627120  0.51440890    -0.11400
C192        C  0.40688688  0.10368061  0.51105299    -0.12900
C193        C  0.44089064  0.38823262  0.02264503    -0.11400
C194        C  0.41951506  0.34786994  0.01923745    -0.12900
C195        C  0.16971496  0.10046140  0.99595511    -0.11400
C196        C  0.20303995  0.11612240  0.99550445    -0.12900
C197        C  0.33412325  0.13508413  0.35879793    -0.11400
C198        C  0.33920716  0.17110562  0.33998218     0.10700
C199        C  0.33809894  0.20282203  0.36265318    -0.11400
C200        C  0.33706498  0.20181005  0.40286328    -0.11400
C201        C  0.33733927  0.16919896  0.42213951     0.10700
C202        C  0.33329236  0.13420537  0.39899089    -0.11400
H203        H  0.32946041  0.10652652  0.34256839     0.14700
H204        H  0.33780415  0.22849064  0.34925002     0.14700
H205        H  0.33599862  0.22672468  0.41888144     0.14700
H206        H  0.32834097  0.10519422  0.41165717     0.14700
C207        C  0.33662124  0.21322647  0.11538465    -0.11400
C208        C  0.33503993  0.18098249  0.09049647     0.10700
C209        C  0.32885993  0.14333743  0.10724967    -0.11400
C210        C  0.33026360  0.14148916  0.14734859    -0.11400
C211        C  0.33732732  0.17694298  0.17244090     0.10700
C212        C  0.33752810  0.21108787  0.15552936    -0.11400
H213        H  0.33603807  0.23956246  0.10406747     0.14700
H214        H  0.32324273  0.11519516  0.08925921     0.14700
H215        H  0.32498278  0.11161563  0.15847949     0.14700
H216        H  0.33815062  0.23621554  0.17334794     0.14700
C217        C  0.33684675  0.17030506  0.54584654     0.31900
C218        C  0.33844245  0.18497829  0.96719787     0.31900
C219        C  0.29910305  0.15126899  0.52287078    -0.04300
C220        C  0.36350375  0.21631562  0.52940301    -0.05100
C221        C  0.35023354  0.14367233  0.52668696    -0.04900
C222        C  0.29908121  0.15585941  0.98305561    -0.04300
C223        C  0.35631400  0.23082963  0.98984180    -0.05100
C224        C  0.36009529  0.16886314  0.98744615    -0.05000
C225        C  0.26340572  0.14145222  0.96861264    -0.30300
N226        N  0.24124841  0.13164634  0.99830795     0.16200
C227        C  0.26277393  0.13476440  0.53167956    -0.30300
H228        H  0.25266019  0.13084898  0.56016224     0.18100
C229        C  0.38081382  0.27518325  0.98188093    -0.29300
N230        N  0.40318024  0.28646204  0.51402755     0.14900
C231        C  0.38796993  0.26046873  0.54387141    -0.29300
C232        C  0.38224795  0.15492539  0.97696263    -0.29600
N233        N  0.39452616  0.14641929  0.00920355     0.15400
H234        H  0.38887854  0.15102175  0.94820342     0.18000
C235        C  0.37264667  0.13076655  0.53955704    -0.29600
H236        H  0.38126281  0.13116709  0.56904390     0.18000
H237        H  0.39406522  0.27302762  0.57374058     0.18000
H238        H  0.25498114  0.14110206  0.93902618     0.18100
H239        H  0.39047441  0.28789184  0.95419015     0.18000
C240        C  0.33759275  0.17774052  0.79612531     0.31900
C241        C  0.33638322  0.17424615  0.71672853     0.31900
C242        C  0.29945077  0.15912860  0.77428824    -0.04300
C243        C  0.36436202  0.22288454  0.77832990    -0.05100
C244        C  0.34930233  0.14933535  0.77715922    -0.04900
C245        C  0.29869529  0.15728328  0.73429097    -0.04300
C246        C  0.36369530  0.22115791  0.73808495    -0.05100
C247        C  0.34890277  0.14763671  0.73669289    -0.05000
C248        C  0.26219294  0.14061015  0.72076106    -0.30300
N249        N  0.24134974  0.13262088  0.75145315     0.16200
C250        C  0.26362620  0.14367826  0.78416268    -0.30300
H251        H  0.25438712  0.14068965  0.81297099     0.18100
C252        C  0.38728032  0.26482763  0.72816859    -0.29300
N253        N  0.40167335  0.29237531  0.76084414     0.14900
C254        C  0.38846235  0.26747241  0.79152633    -0.29300
C255        C  0.37370345  0.13721123  0.72703858    -0.29600
N256        N  0.38729172  0.13072953  0.75936476     0.15400
H257        H  0.38332603  0.13734139  0.69888239     0.18000
C258        C  0.37397366  0.13962138  0.78994162    -0.29600
H259        H  0.38379291  0.14195279  0.81940475     0.18000
H260        H  0.39511634  0.28117846  0.82107902     0.18000
H261        H  0.25161965  0.13479219  0.69101549     0.18100
H262        H  0.39272925  0.27604996  0.69948938     0.18000
C263        C  0.13038340  0.06763231  0.50748736     0.78400
Tb264      Tb  0.46153079  0.00557830  0.53357919     1.80700
O265        O  0.12120894  0.06774387  0.54126300    -0.49700
O266        O  0.07941811  0.48068209  0.56823666    -0.57100
C267        C  0.06050699  0.10655452  0.54866406     0.94200
O268        O  0.45059685  0.05896688  0.55295349    -0.56600
Tb269      Tb  0.05536833  0.01514620  0.52807300     1.78100
O270        O  0.40292509  0.45514733  0.53090431    -0.57100
O271        O  0.00003057  0.44290504  0.50497577    -0.75900
O272        O  0.07357287  0.08437829  0.55611724    -0.75300
O273        O  0.02881581  0.04395737  0.97829180    -0.60500
C274        C  0.47017042  0.42230944  0.52265785     0.93800
O275        O  0.50150419  0.03071093  0.58874753    -0.72500
C276        C  0.38631761  0.95099914  0.55320057     0.77200
C277        C  0.08200881  0.45814671  0.54210545     0.78200
O278        O  0.10234712  0.04337274  0.48324045    -0.57700
O279        O  0.07042611  0.45993623  0.50916503    -0.49700
O280        O  0.46578456  0.99910386  0.97635025    -0.75700
O281        O  0.02943372  0.99691033  0.58700297    -0.59700
C282        C  0.01919015  0.01641825  0.60772551     0.92000
C283        C  0.99624486  0.01682742  0.96115610     0.93200
C284        C  0.44290761  0.08156837  0.02139727     0.77600
O285        O  0.41391760  0.97616294  0.57770829    -0.49100
O286        O  0.44361096  0.55260995  0.98981058    -0.50200
O287        O  0.46001404  0.44200213  0.54382943    -0.63100
O288        O  0.02581618  0.08867140  0.53822191    -0.64200
C289        C  0.13023154  0.07444962  0.76142866     0.78400
Tb290      Tb  0.46549247  0.01903191  0.78428576     1.80700
O291        O  0.12093717  0.07353766  0.79528883    -0.49700
O292        O  0.07903387  0.49299589  0.82461578    -0.57100
C293        C  0.05463437  0.11168703  0.79883487     0.94200
O294        O  0.45802231  0.07561637  0.80261601    -0.56600
Tb295      Tb  0.05512936  0.02224446  0.78153373     1.78100
O296        O  0.40163435  0.46094816  0.77400172    -0.57100
O297        O  0.00026850  0.45291227  0.78903939    -0.75900
O298        O  0.06590924  0.09264265  0.77856255    -0.75300
O299        O  0.01744356  0.00316264  0.72568912    -0.60500
C300        C  0.46539849  0.42785674  0.77124266     0.93800
O301        O  0.49914463  0.03268580  0.84202789    -0.72500
C302        C  0.38961176  0.96680376  0.80116398     0.77200
C303        C  0.08235556  0.46979657  0.79984226     0.78200
O304        O  0.10229245  0.05119661  0.73687768    -0.57700
O305        O  0.07214316  0.47116540  0.76609756    -0.49700
O306        O  0.47305073  0.00238310  0.72324716    -0.75700
O307        O  0.05038353  0.04397706  0.84217150    -0.59700
C308        C  0.02017916  0.02609782  0.85922471     0.92000
C309        C  0.00767395  0.02649559  0.71204443     0.93200
C310        C  0.44457551  0.07633522  0.77033672     0.77600
O311        O  0.41642211  0.99253174  0.82627510    -0.49100
O312        O  0.44517331  0.54893831  0.74769222    -0.50200
O313        O  0.45253115  0.44908972  0.75961753    -0.63100
O314        O  0.02305645  0.09015659  0.81417945    -0.64200
C315        C  0.19142767  0.35791504  0.52418763     0.31900
C316        C  0.18814725  0.35913170  0.60331955     0.31900
C317        C  0.17473413  0.38116553  0.54172191    -0.04300
C318        C  0.16759747  0.31188885  0.54111350    -0.05100
C319        C  0.22949429  0.38050742  0.54835043    -0.04900
C320        C  0.17266065  0.38161433  0.58164369    -0.04300
C321        C  0.16543658  0.31248247  0.58107441    -0.05100
C322        C  0.22785835  0.38142962  0.58837171    -0.05000
C323        C  0.15009327  0.39562515  0.58978581    -0.30300
N324        N  0.13995243  0.40486878  0.55654007     0.16200
C325        C  0.15449154  0.39595378  0.52703969    -0.30300
H326        H  0.14916977  0.39801449  0.49701084     0.18100
C327        C  0.14190300  0.26847004  0.58991074    -0.29300
N328        N  0.13102077  0.24182607  0.55706623     0.14900
C329        C  0.14641160  0.26755005  0.52712834    -0.29300
C330        C  0.26316693  0.39596942  0.60434751    -0.29600
N331        N  0.28553901  0.40310963  0.57530750     0.15400
H332        H  0.27144000  0.39930714  0.63456883     0.18000
C333        C  0.26525735  0.39276077  0.54136759    -0.29600
H334        H  0.27560759  0.39228968  0.51379213     0.18000
H335        H  0.14234248  0.25476405  0.49754805     0.18000
H336        H  0.14009802  0.39691923  0.61736582     0.18100
H337        H  0.13289320  0.25637878  0.61792079     0.18000
C338        C  0.18436960  0.36210583  0.77402413     0.31900
C339        C  0.18628533  0.36560090  0.85354235     0.31900
C340        C  0.16815464  0.38527259  0.79341938    -0.04300
C341        C  0.16158261  0.31662204  0.79204466    -0.05100
C342        C  0.22367736  0.38598599  0.79544487    -0.04900
C343        C  0.16941667  0.38728675  0.83360524    -0.04300
C344        C  0.16295096  0.31832390  0.83230085    -0.05100
C345        C  0.22496061  0.38755164  0.83564707    -0.05000
C346        C  0.14964632  0.40402648  0.84495983    -0.30300
N347        N  0.13626521  0.41160103  0.81301861     0.14400
C348        C  0.14667055  0.39966665  0.78156890    -0.30300
H349        H  0.13788098  0.39995441  0.75232900     0.18100
C350        C  0.14028866  0.27457357  0.84223810    -0.29300
N351        N  0.12479686  0.24712693  0.80953959     0.14900
C352        C  0.13717169  0.27207577  0.77884754    -0.29300
C353        C  0.26117535  0.40143030  0.84794174    -0.29600
N354        N  0.28150275  0.40977736  0.81682157     0.15400
H355        H  0.27157148  0.40299209  0.87694419     0.18000
C356        C  0.25901019  0.40020172  0.78469340    -0.29600
H357        H  0.26721105  0.40129265  0.75562368     0.18000
H358        H  0.12839762  0.25859321  0.74924581     0.18000
H359        H  0.14428734  0.40886765  0.87407693     0.18100
H360        H  0.13505442  0.26331432  0.87092552     0.18000
C361        C  0.21816886  0.40278028  0.96168991    -0.11400
C362        C  0.18622664  0.36939250  0.98012001     0.10700
C363        C  0.15251600  0.33965187  0.95656776    -0.11400
C364        C  0.15240288  0.33911980  0.91623278    -0.11400
C365        C  0.18606540  0.36802062  0.89784958     0.10700
C366        C  0.21816929  0.40197145  0.92145450    -0.11400
H367        H  0.24290764  0.43091278  0.97805507     0.14700
H368        H  0.12607793  0.31652077  0.96935500     0.14700
H369        H  0.12580651  0.31579091  0.89941281     0.14700
H370        H  0.24306675  0.42917398  0.90907683     0.14700
C371        C  0.19003319  0.39623450  0.70947705    -0.11400
C372        C  0.18532499  0.36128805  0.72976541     0.10700
C373        C  0.18718085  0.32926004  0.70866103    -0.11400
C374        C  0.18855295  0.32890416  0.66845992    -0.11400
C375        C  0.18775694  0.36028084  0.64763634     0.10700
C376        C  0.19104243  0.39564132  0.66928719    -0.11400
H377        H  0.19400299  0.42497001  0.72464093     0.14700
H378        H  0.18837349  0.30484231  0.72325751     0.14700
H379        H  0.19084634  0.30428547  0.65380211     0.14700
H380        H  0.19549907  0.42378884  0.65540616     0.14700
C381        C  0.07878964  0.15975044  0.80437007    -0.11400
C382        C  0.09983069  0.20017774  0.80744525    -0.12900
C383        C  0.35252100  0.43963304  0.81507593    -0.11400
C384        C  0.31951614  0.42472453  0.81727114    -0.12900
C385        C  0.11521753  0.42934279  0.81197027    -0.11400
C386        C  0.09860701  0.44628972  0.80845211    -0.12900
C387        C  0.08612590  0.15452893  0.55246533    -0.11400
C388        C  0.10706980  0.19489331  0.55457198    -0.12900
C389        C  0.32400022  0.41974948  0.57840974    -0.11400
C390        C  0.35726555  0.43620269  0.57578440    -0.12900
C391        C  0.09925945  0.43538272  0.54871400    -0.11400
C392        C  0.11721247  0.42020269  0.55287213    -0.12900
C393        C  0.02344093  0.02852152  0.90047782    -0.14500
C394        C  0.99254297  0.01041266  0.91999603    -0.29700
H395        H  0.05361484  0.54577568  0.91233892     0.14500
H396        H  0.96417055  0.99141708  0.90562526     0.15100
C397        C  0.00790687  0.03095439  0.67137337    -0.14500
C398        C  0.02066497  0.01336327  0.64860410    -0.29700
H399        H  0.99713350  0.04877644  0.66000695     0.14500
H400        H  0.54295072  0.01208374  0.65741694     0.15100
C401        C  0.42889162  0.10107590  0.76445596    -0.11400
C402        C  0.41111551  0.11667236  0.76132003    -0.12900
C403        C  0.42342945  0.33934590  0.76276768    -0.11400
C404        C  0.44190921  0.37975067  0.76567077    -0.12900
C405        C  0.20255285  0.11435672  0.75029630    -0.11400
C406        C  0.16919025  0.09743368  0.75265304    -0.12900
C407        C  0.42923455  0.10818416  0.01455126    -0.11400
C408        C  0.41436771  0.12717179  0.01085816    -0.12900
C409        C  0.44696447  0.37406721  0.51941760    -0.11400
C410        C  0.42710556  0.33355397  0.51692252    -0.12900
C411        C  0.16931243  0.09026996  0.49858369    -0.11400
C412        C  0.20263520  0.10671072  0.49644634    -0.12900
C413        C  0.33113216  0.14388382  0.86121880    -0.11400
C414        C  0.33619443  0.17870877  0.84038762     0.10700
C415        C  0.33623288  0.21227045  0.86126152    -0.11400
C416        C  0.33682468  0.21444648  0.90165133    -0.11400
C417        C  0.33710748  0.18290051  0.92277404     0.10700
C418        C  0.33142948  0.14587727  0.90151269    -0.11400
H419        H  0.32614291  0.11435558  0.84648451     0.14700
H420        H  0.33552314  0.23685758  0.84635258     0.14700
H421        H  0.33594942  0.24025162  0.91604953     0.14700
H422        H  0.32704518  0.11808663  0.91606019     0.14700
C423        C  0.33251326  0.20180423  0.61137171    -0.11400
C424        C  0.33414737  0.16974087  0.58997148     0.10700
C425        C  0.32976203  0.13489156  0.61012076    -0.11400
C426        C  0.32987832  0.13593032  0.65033440    -0.11400
C427        C  0.33382507  0.17155219  0.67224819     0.10700
C428        C  0.33224812  0.20261558  0.65176359    -0.11400
H429        H  0.33165901  0.22655125  0.59690528     0.14700
H430        H  0.32528925  0.10589726  0.59492369     0.14700
H431        H  0.32586391  0.10790234  0.66402037     0.14700
H432        H  0.33114331  0.22791588  0.66699464     0.14700
C433        C  0.33809223  0.67966001  0.04578149     0.31900
C434        C  0.33899028  0.66596453  0.46574632     0.31900
C435        C  0.29879373  0.65472032  0.02420046    -0.04300
C436        C  0.35893639  0.72666944  0.03046115    -0.05100
C437        C  0.35683773  0.66092833  0.02410363    -0.04900
C438        C  0.30062375  0.64741655  0.48258155    -0.04300
C439        C  0.36505192  0.71268451  0.48777250    -0.05100
C440        C  0.35238623  0.64022982  0.48574848    -0.05000
C441        C  0.26456464  0.63219828  0.46850131    -0.30300
N442        N  0.24324166  0.62424888  0.49880311     0.16200
C443        C  0.26343838  0.64014706  0.03515385    -0.30300
H444        H  0.25520889  0.63802820  0.06432499     0.18100
C445        C  0.38866123  0.75665146  0.47859538    -0.29300
N446        N  0.39519892  0.79783949  0.01704661     0.14900
C447        C  0.38233535  0.77045034  0.04609897    -0.29300
C448        C  0.37738791  0.63000740  0.47629352    -0.29600
N449        N  0.39033246  0.62273626  0.50864263     0.15400
H450        H  0.38742865  0.63048652  0.44830983     0.18000
C451        C  0.37917031  0.64712175  0.03412796    -0.29600
H452        H  0.38711354  0.64407262  0.06282231     0.18000
H453        H  0.39049676  0.78182185  0.07617814     0.18000
H454        H  0.25479660  0.62799666  0.43865936     0.18100
H455        H  0.39481483  0.76844592  0.45011936     0.18000
C456        C  0.33924795  0.66550122  0.29492332     0.31900
C457        C  0.33940311  0.66875282  0.21584480     0.31900
C458        C  0.30121039  0.64730822  0.27303403    -0.04300
C459        C  0.36553008  0.71234515  0.27996730    -0.05100
C460        C  0.35232406  0.63972888  0.27332717    -0.04900
C461        C  0.30121078  0.64887180  0.23322199    -0.04300
C462        C  0.36565134  0.71412411  0.23997668    -0.05100
C463        C  0.35237029  0.64126955  0.23300880    -0.05000
C464        C  0.26465250  0.63146599  0.21952090    -0.30300
N465        N  0.24299426  0.61972054  0.24992841     0.16200
C466        C  0.26477667  0.62909423  0.28264720    -0.30300
H467        H  0.25478782  0.62310880  0.31124646     0.18100
C468        C  0.38906371  0.75890091  0.23302651    -0.29300
N469        N  0.40249210  0.78365817  0.26721755     0.14900
C470        C  0.38877617  0.75590628  0.29600569    -0.29300
C471        C  0.37630631  0.63037096  0.22111687    -0.29600
N472        N  0.38947879  0.62120354  0.25207805     0.15400
H473        H  0.38562428  0.63193432  0.19255440     0.18000
C474        C  0.37649647  0.62849098  0.28391480    -0.29600
H475        H  0.38628752  0.62862534  0.31280679     0.18000
H476        H  0.39452847  0.76689766  0.32624694     0.18000
H477        H  0.25457283  0.62768451  0.18986105     0.18100
H478        H  0.39520057  0.77275174  0.20533681     0.18000
C479        C  0.13067199  0.57854575  0.01476020     0.78400
Tb480      Tb  0.46596058  0.52615406  0.03537093     1.80700
O481        O  0.12040923  0.57896646  0.04796314    -0.49700
O482        O  0.07368631  0.98841486  0.06245190    -0.57100
C483        C  0.05353008  0.61036402  0.03647523     0.94200
O484        O  0.45510809  0.58066942  0.04698251    -0.56600
Tb485      Tb  0.05496443  0.52301290  0.03361227     1.78100
O486        O  0.39791826  0.96980383  0.02448848    -0.57100
O487        O  0.99677695  0.95523630  0.00651661    -0.75900
O488        O  0.06654419  0.59178023  0.05352015    -0.75300
O489        O  0.03287671  0.52633853  0.47520028    -0.60500
C490        C  0.46312383  0.93350106  0.02676668     0.93800
O491        O  0.50542612  0.55388029  0.09065129    -0.72500
C492        C  0.39307975  0.47653223  0.06170713     0.77200
C493        C  0.07618043  0.96692533  0.03520547     0.78200
O494        O  0.10331358  0.55280088  0.99022153    -0.57700
O495        O  0.06627710  0.97167461  0.00247628    -0.49700
O496        O  0.47111862  0.48750393  0.47779981    -0.75700
O497        O  0.02495913  0.50862840  0.09046661    -0.59700
C498        C  0.01246373  0.52813234  0.10743145     0.92000
C499        C  0.99953648  0.50526617  0.45894840     0.93200
C500        C  0.44559251  0.56592277  0.52181052     0.77600
O501        O  0.42262183  0.50246386  0.08377945    -0.49100
O502        O  0.43912635  0.03705789  0.49405525    -0.50200
O503        O  0.45387870  0.95520430  0.04644806    -0.63100
O504        O  0.02109593  0.58796901  0.01798041    -0.64200
C505        C  0.13230694  0.56069483  0.26073494     0.78400
Tb506      Tb  0.47156911  0.51409855  0.28074526     1.80700
O507        O  0.12448879  0.56715175  0.29353779    -0.49700
O508        O  0.07307078  0.98271372  0.32159712    -0.57100
C509        C  0.05734110  0.60027701  0.28362512     0.94200
O510        O  0.46079293  0.56866167  0.29525039    -0.56600
Tb511      Tb  0.05907682  0.51089694  0.28526496     1.78100
O512        O  0.39565292  0.95238172  0.26071013    -0.57100
O513        O  0.99904455  0.95129138  0.25717449    -0.75900
O514        O  0.06910080  0.57859958  0.26910335    -0.75300
O515        O  0.02306700  0.48087596  0.22769817    -0.60500
C516        C  0.46296308  0.91898560  0.27870870     0.93800
O517        O  0.49140694  0.50413838  0.33942815    -0.72500
C518        C  0.39579664  0.45820898  0.29923612     0.77200
C519        C  0.07696050  0.96079949  0.29605172     0.78200
O520        O  0.10367991  0.53093587  0.23905674    -0.57700
O521        O  0.06903389  0.96542863  0.26239709    -0.49700
O522        O  0.50195766  0.52401822  0.22433348    -0.75700
O523        O  0.05174492  0.54230773  0.33919825    -0.59700
C524        C  0.02159950  0.52406128  0.35636180     0.92000
C525        C  0.01255325  0.50075182  0.20901824     0.93200
C526        C  0.44762238  0.56773388  0.26229113     0.77600
O527        O  0.42320443  0.48213632  0.32415171    -0.49100
O528        O  0.43829653  0.03528958  0.23454431    -0.50200
O529        O  0.44917940  0.93659837  0.26137193    -0.63100
O530        O  0.02546930  0.58140815  0.29815252    -0.64200
C531        C  0.18166056  0.86363558  0.01358395     0.31900
C532        C  0.17866492  0.86244295  0.09248632     0.31900
C533        C  0.16783719  0.88934441  0.03261997    -0.04300
C534        C  0.15560376  0.81698647  0.02928396    -0.05100
C535        C  0.21946112  0.88287407  0.03719858    -0.04900
C536        C  0.16578296  0.88866881  0.07260735    -0.04300
C537        C  0.15368309  0.81648568  0.06918703    -0.05100
C538        C  0.21784500  0.88250020  0.07708383    -0.05000
C539        C  0.14292807  0.90220668  0.08134825    -0.30300
N540        N  0.13312326  0.91263080  0.04856228     0.16200
C541        C  0.14772764  0.90453922  0.01871690    -0.30300
H542        H  0.14195054  0.90665238  0.98883502     0.18100
C543        C  0.12993033  0.77213810  0.07727403    -0.29300
N544        N  0.11838835  0.74615400  0.04387708     0.14900
C545        C  0.13395460  0.77279504  0.01448214    -0.29300
C546        C  0.25378440  0.89962167  0.09291133    -0.29600
N547        N  0.27673708  0.90964726  0.06384592     0.15400
H548        H  0.26250330  0.90412752  0.12314066     0.18000
C549        C  0.25625357  0.89915795  0.02990565    -0.29600
H550        H  0.26748284  0.90259350  0.00210178     0.18000
H551        H  0.13053631  0.76066855  0.98480212     0.18000
H552        H  0.13207342  0.90175413  0.10882982     0.18100
H553        H  0.12214955  0.75946081  0.10531588     0.18000
C554        C  0.17763276  0.85422651  0.26238140     0.31900
C555        C  0.17934896  0.85172648  0.34155649     0.31900
C556        C  0.15993889  0.87411634  0.28426820    -0.04300
C557        C  0.15610083  0.80717196  0.27767745    -0.05100
C558        C  0.21704718  0.87828451  0.28359844    -0.04900
C559        C  0.16108816  0.87328322  0.32427077    -0.04300
C560        C  0.15744777  0.80590955  0.31776131    -0.05100
C561        C  0.21819759  0.87681990  0.32362971    -0.05000
C562        C  0.14146330  0.88956954  0.33770901    -0.30300
N563        N  0.12821363  0.89929301  0.30703764     0.14400
C564        C  0.13861805  0.88932333  0.27452503    -0.30300
H565        H  0.13006060  0.89180343  0.24591422     0.18100
C566        C  0.13755330  0.76132870  0.32514834    -0.29300
N567        N  0.12357120  0.73603717  0.29123426     0.14900
C568        C  0.13426625  0.76327991  0.26213564    -0.29300
C569        C  0.25400330  0.88869369  0.33493321    -0.29600
N570        N  0.27433689  0.89888164  0.30359093     0.15400
H571        H  0.26393489  0.88753822  0.36332928     0.18000
C572        C  0.25209611  0.89212139  0.27213472    -0.29600
H573        H  0.26011355  0.89447978  0.24286868     0.18000
H574        H  0.12634550  0.75173676  0.23206055     0.18000
H575        H  0.13648993  0.89310745  0.36732005     0.18100
H576        H  0.13346369  0.74801871  0.35297989     0.18000
C577        C  0.21118720  0.88582744  0.45017744    -0.11400
C578        C  0.18029578  0.85041475  0.46838116     0.10700
C579        C  0.14739038  0.81846023  0.44456710    -0.11400
C580        C  0.14705591  0.81892374  0.40422268    -0.11400
C581        C  0.17963279  0.85132979  0.38593135     0.10700
C582        C  0.21089739  0.88621362  0.40991661    -0.11400
H583        H  0.23542268  0.91426864  0.46696760     0.14700
H584        H  0.12144834  0.79336747  0.45710680     0.14700
H585        H  0.12089076  0.79411752  0.38737142     0.14700
H586        H  0.23498465  0.91484094  0.39775585     0.14700
C587        C  0.18151740  0.89269503  0.20083506    -0.11400
C588        C  0.17865079  0.85717590  0.21836603     0.10700
C589        C  0.18187667  0.82793901  0.19459457    -0.11400
C590        C  0.18225700  0.83015905  0.15455712    -0.11400
C591        C  0.17913108  0.86146043  0.13659699     0.10700
C592        C  0.18112975  0.89441895  0.16072357    -0.11400
H593        H  0.18513022  0.92011991  0.21802712     0.14700
H594        H  0.18475238  0.80362928  0.20692314     0.14700
H595        H  0.18517092  0.80727181  0.13757001     0.14700
H596        H  0.18394264  0.92270988  0.14896425     0.14700
C597        C  0.08148489  0.64845990  0.28454496    -0.11400
C598        C  0.10109821  0.68897060  0.28708666    -0.12900
C599        C  0.34508587  0.92788308  0.30069396    -0.11400
C600        C  0.31212250  0.91309240  0.30316059    -0.12900
C601        C  0.10776500  0.91784004  0.30752606    -0.11400
C602        C  0.09180915  0.93561637  0.30412913    -0.12900
C603        C  0.07630672  0.65856690  0.03828979    -0.11400
C604        C  0.09562167  0.69906455  0.04058702    -0.12900
C605        C  0.31588077  0.92938221  0.06750023    -0.11400
C606        C  0.34966648  0.94771238  0.06669728    -0.12900
C607        C  0.09212716  0.94263061  0.04079723    -0.11400
C608        C  0.10998430  0.92739812  0.04514170    -0.12900
C609        C  0.02550005  0.52716932  0.39765722    -0.14500
C610        C  0.99505356  0.50441146  0.41779637    -0.29700
H611        H  0.04875926  0.02760934  0.41227326     0.14500
H612        H  0.96644971  0.48425043  0.40387421     0.15100
C613        C  0.01647175  0.50190223  0.16816766    -0.14500
C614        C  0.00925662  0.52635093  0.14821716    -0.29700
H615        H  0.02588678  0.48327673  0.15455448     0.14500
H616        H  0.50899750  0.55493233  0.16274118     0.15100
C617        C  0.43082587  0.59100351  0.25459579    -0.11400
C618        C  0.41294198  0.60655680  0.25198011    -0.12900
C619        C  0.42397929  0.83059842  0.27204665    -0.11400
C620        C  0.44181173  0.87093429  0.27580367    -0.12900
C621        C  0.20406282  0.60039264  0.24840180    -0.11400
C622        C  0.17069686  0.58301215  0.25070326    -0.12900
C623        C  0.43013259  0.59063375  0.51402630    -0.11400
C624        C  0.41320083  0.60730030  0.51059861    -0.12900
C625        C  0.43870569  0.88533849  0.02442093    -0.11400
C626        C  0.41879348  0.84486969  0.02135374    -0.12900
C627        C  0.17000095  0.60186065  0.00675216    -0.11400
C628        C  0.20302800  0.61711989  0.00364956    -0.12900
C629        C  0.33540285  0.63007491  0.35860572    -0.11400
C630        C  0.33715174  0.66375454  0.33904859     0.10700
C631        C  0.33372366  0.69399967  0.36110799    -0.11400
C632        C  0.33390310  0.69435136  0.40144950    -0.11400
C633        C  0.33721504  0.66423336  0.42131995     0.10700
C634        C  0.33537008  0.63026879  0.39882569    -0.11400
H635        H  0.33265977  0.60235315  0.34297018     0.14700
H636        H  0.33115115  0.71777842  0.34714212     0.14700
H637        H  0.33155762  0.71843316  0.41715588     0.14700
H638        H  0.33257732  0.60264145  0.41195740     0.14700
C639        C  0.33561285  0.70610027  0.11471072    -0.11400
C640        C  0.33701712  0.67606818  0.08984716     0.10700
C641        C  0.33269254  0.63925145  0.10639103    -0.11400
C642        C  0.33326476  0.63663387  0.14642714    -0.11400
C643        C  0.33735486  0.67027192  0.17164630     0.10700
C644        C  0.33558709  0.70310456  0.15477473    -0.11400
H645        H  0.33386948  0.73161337  0.10328338     0.14700
H646        H  0.32840006  0.61187366  0.08838360     0.14700
H647        H  0.32947475  0.60744045  0.15737486     0.14700
H648        H  0.33411599  0.72665859  0.17259912     0.14700
C649        C  0.33869514  0.66790703  0.54504305     0.31900
C650        C  0.33658107  0.68215448  0.96647430     0.31900
C651        C  0.30062920  0.64846923  0.52253186    -0.04300
C652        C  0.36492062  0.71358247  0.52794964    -0.05100
C653        C  0.35205370  0.64113969  0.52610849    -0.04900
C654        C  0.29782648  0.65591615  0.98416425    -0.04300
C655        C  0.35828004  0.72805894  0.99025542    -0.05100
C656        C  0.35611706  0.66215384  0.98412041    -0.05000
C657        C  0.26166618  0.64219058  0.97212324    -0.30300
N658        N  0.24108026  0.63214483  0.00334318     0.16200
C659        C  0.26483404  0.63400061  0.53178760    -0.30300
H660        H  0.25532242  0.63145933  0.56042192     0.18100
C661        C  0.38160030  0.77279755  0.98305340    -0.29300
N662        N  0.40238160  0.78352844  0.51167863     0.14900
C663        C  0.38855862  0.75793005  0.54187311    -0.29300
C664        C  0.37785459  0.64863416  0.97108880    -0.29600
N665        N  0.39109619  0.63910828  0.00175222     0.15400
H666        H  0.38431204  0.64672232  0.94177502     0.18000
C667        C  0.37650572  0.63111806  0.53910404    -0.29600
H668        H  0.38558148  0.63247301  0.56864418     0.18000
H669        H  0.39479151  0.77096280  0.57161247     0.18000
H670        H  0.25176369  0.64194838  0.94322128     0.18100
H671        H  0.38949502  0.78656796  0.95544860     0.18000
C672        C  0.33851900  0.67883204  0.79546785     0.31900
C673        C  0.33900329  0.67492666  0.71604960     0.31900
C674        C  0.30023681  0.65720283  0.77255845    -0.04300
C675        C  0.36385461  0.72426437  0.77747281    -0.05100
C676        C  0.35324111  0.65315790  0.77755797    -0.04900
C677        C  0.30039285  0.65526538  0.73257283    -0.04300
C678        C  0.36401349  0.72224462  0.73725224    -0.05100
C679        C  0.35363947  0.65118360  0.73734964    -0.05000
C680        C  0.26409748  0.63823792  0.71798150    -0.30300
N681        N  0.24244463  0.63005298  0.74797564     0.16200
C682        C  0.26401144  0.64135553  0.78129312    -0.30300
H683        H  0.25424794  0.63926720  0.80975031     0.18100
C684        C  0.38829858  0.76578535  0.72718590    -0.29300
N685        N  0.40239746  0.79363361  0.75966989     0.14900
C686        C  0.38835288  0.76899595  0.79043703    -0.29300
C687        C  0.37554004  0.63634687  0.72842653    -0.29600
N688        N  0.38703713  0.62814248  0.76137300     0.15400
H689        H  0.38430338  0.63392775  0.70041842     0.18000
C690        C  0.37449387  0.63916378  0.79144699    -0.29600
H691        H  0.38202534  0.63912411  0.82124946     0.18000
H692        H  0.39559461  0.78298287  0.81992344     0.18000
H693        H  0.25442805  0.63326418  0.68800711     0.18100
H694        H  0.39516373  0.77667555  0.69851355     0.18000
C695        C  0.13200662  0.56712787  0.50746005     0.78400
Tb696      Tb  0.46871181  0.51122708  0.53883337     1.80700
O697        O  0.12198531  0.56886301  0.54048603    -0.49700
O698        O  0.07526568  0.97978433  0.56550014    -0.57100
C699        C  0.05652293  0.59867123  0.54158691     0.94200
O700        O  0.45292450  0.56070495  0.55544308    -0.56600
Tb701      Tb  0.05681539  0.51096976  0.52770499     1.78100
O702        O  0.39609503  0.95095049  0.51969780    -0.57100
O703        O  0.99640766  0.95060171  0.50441475    -0.75900
O704        O  0.06949206  0.57815889  0.55468057    -0.75300
O705        O  0.03155894  0.53075217  0.97608489    -0.60500
C706        C  0.46598535  0.91904820  0.52084998     0.93800
O707        O  0.51025770  0.53349992  0.59224644    -0.72500
C708        C  0.39559040  0.45912074  0.56471789     0.77200
C709        C  0.07641893  0.95743840  0.53799206     0.78200
O710        O  0.10456793  0.53954860  0.48361238    -0.57700
O711        O  0.06507185  0.96156482  0.50588268    -0.49700
O712        O  0.46979784  0.49926036  0.97658210    -0.75700
O713        O  0.02881252  0.49010666  0.58547819    -0.59700
C714        C  0.01701150  0.50819182  0.60568543     0.92000
C715        C  0.99842637  0.51050175  0.95943995     0.93200
C716        C  0.44315148  0.57925090  0.01324542     0.77600
O717        O  0.42466998  0.48747917  0.58654749    -0.49100
O718        O  0.44040731  0.05432645  0.99616815    -0.50200
O719        O  0.45560752  0.93844893  0.54208762    -0.63100
O720        O  0.02283261  0.57839961  0.52629571    -0.64200
C721        C  0.13207025  0.57484095  0.75739876     0.78400
Tb722      Tb  0.46689782  0.51700489  0.78756074     1.80700
O723        O  0.12385638  0.57702166  0.79120514    -0.49700
O724        O  0.07592370  0.98897607  0.82049373    -0.57100
C725        C  0.05660223  0.61176447  0.79487786     0.94200
O726        O  0.45334399  0.56801413  0.80700192    -0.56600
Tb727      Tb  0.05810103  0.52255291  0.78069068     1.78100
O728        O  0.40043812  0.96501163  0.76865699    -0.57100
O729        O  0.99755342  0.95447890  0.79372062    -0.75900
O730        O  0.06853383  0.59243998  0.77627843    -0.75300
O731        O  0.02043646  0.50201439  0.72458649    -0.60500
C732        C  0.46614805  0.92938088  0.76651882     0.93800
O733        O  0.48920277  0.49829542  0.83919747    -0.72500
C734        C  0.39169374  0.46227853  0.80716678     0.77200
C735        C  0.07598187  0.96494816  0.79374772     0.78200
O736        O  0.10348000  0.54850757  0.73425047    -0.57700
O737        O  0.06403595  0.96758984  0.76136012    -0.49700
O738        O  0.49626146  0.53892801  0.73042829    -0.75700
O739        O  0.05208314  0.54604892  0.83997937    -0.59700
C740        C  0.02177387  0.52642335  0.85696820     0.92000
C741        C  0.01014664  0.52457591  0.71027134     0.93200
C742        C  0.44232884  0.57093577  0.77417731     0.77600
O743        O  0.41917262  0.48847583  0.83148775    -0.49100
O744        O  0.44335677  0.05051975  0.74447436    -0.50200
O745        O  0.45425094  0.94805333  0.78636948    -0.63100
O746        O  0.02486957  0.59062286  0.80995554    -0.64200
C747        C  0.18048137  0.85030313  0.51280802     0.31900
C748        C  0.17971494  0.85288705  0.59229497     0.31900
C749        C  0.16269563  0.87195237  0.53101261    -0.04300
C750        C  0.15871824  0.80452444  0.53048329    -0.05100
C751        C  0.21940098  0.87522253  0.53581590    -0.04900
C752        C  0.16192221  0.87308941  0.57105039    -0.04300
C753        C  0.15780709  0.80576461  0.57065372    -0.05100
C754        C  0.21899888  0.87672244  0.57599420    -0.05000
C755        C  0.14079159  0.88879059  0.58028753    -0.30300
N756        N  0.12995383  0.89800561  0.54746876     0.16200
C757        C  0.14297593  0.88782462  0.51724655    -0.30300
H758        H  0.13760776  0.89062516  0.48743434     0.18100
C759        C  0.13561472  0.76177994  0.58010626    -0.29300
N760        N  0.12439520  0.73457525  0.54749560     0.14900
C761        C  0.13833169  0.75994927  0.51711947    -0.29300
C762        C  0.25452393  0.89073790  0.59072244    -0.29600
N763        N  0.27598126  0.89746157  0.56092467     0.15400
H764        H  0.26339116  0.89341702  0.62064957     0.18000
C765        C  0.25483228  0.88713559  0.52757497    -0.29600
H766        H  0.26410747  0.88605544  0.49948563     0.18000
H767        H  0.13374199  0.74671717  0.48761279     0.18000
H768        H  0.13273156  0.89200063  0.60846848     0.18100
H769        H  0.12756369  0.75008039  0.60838919     0.18000
C770        C  0.18134406  0.86103676  0.76387388     0.31900
C771        C  0.18351456  0.86545138  0.84346565     0.31900
C772        C  0.16244330  0.88113445  0.78290008    -0.04300
C773        C  0.16124348  0.81594338  0.78253129    -0.05100
C774        C  0.22097304  0.88845331  0.78533223    -0.04900
C775        C  0.16379099  0.88350923  0.82309824    -0.04300
C776        C  0.16301490  0.81833747  0.82278284    -0.05100
C777        C  0.22227904  0.89049950  0.82566326    -0.05000
C778        C  0.14312911  0.89900989  0.83428969    -0.30300
N779        N  0.12911418  0.90552823  0.80223047     0.14400
C780        C  0.14025025  0.89446920  0.77083601    -0.30300
H781        H  0.13194869  0.89519223  0.74151278     0.18100
C782        C  0.14197331  0.77497665  0.83350824    -0.29300
N783        N  0.12665664  0.74687529  0.80128927     0.14900
C784        C  0.13765970  0.77104636  0.77010875    -0.29300
C785        C  0.25851445  0.90496062  0.83817834    -0.29600
N786        N  0.27901226  0.91363932  0.80726469     0.15400
H787        H  0.26876534  0.90622375  0.86716927     0.18000
C788        C  0.25652672  0.90316090  0.77490440    -0.29600
H789        H  0.26477741  0.90350006  0.74597690     0.18000
H790        H  0.12790744  0.75676748  0.74078920     0.18000
H791        H  0.13806182  0.90434001  0.86340126     0.18100
H792        H  0.13707494  0.76435100  0.86240298     0.18000
C793        C  0.21388586  0.90047422  0.95215109    -0.11400
C794        C  0.18211991  0.86536768  0.96953319     0.10700
C795        C  0.14880731  0.83582412  0.94541904    -0.11400
C796        C  0.14915874  0.83693078  0.90530563    -0.11400
C797        C  0.18284615  0.86746050  0.88768072     0.10700
C798        C  0.21435982  0.90134861  0.91199172    -0.11400
H799        H  0.23825807  0.92805130  0.96947002     0.14700
H800        H  0.12214319  0.81200010  0.95748755     0.14700
H801        H  0.12288919  0.81353976  0.88799590     0.14700
H802        H  0.23910333  0.92955755  0.90030514     0.14700
C803        C  0.18568910  0.89373745  0.69865667    -0.11400
C804        C  0.18178084  0.85951197  0.71944600     0.10700
C805        C  0.18316123  0.82704495  0.69842604    -0.11400
C806        C  0.18281753  0.82515611  0.65805468    -0.11400
C807        C  0.18104490  0.85561829  0.63686299     0.10700
C808        C  0.18538870  0.89186985  0.65825804    -0.11400
H809        H  0.18959642  0.92257077  0.71359606     0.14700
H810        H  0.18537939  0.80343943  0.71313868     0.14700
H811        H  0.18477678  0.80020277  0.64357498     0.14700
H812        H  0.18931428  0.91951196  0.64393483     0.14700
C813        C  0.08042242  0.65976861  0.79879663    -0.11400
C814        C  0.10163515  0.70008458  0.80034495    -0.12900
C815        C  0.35026741  0.94453430  0.80752777    -0.11400
C816        C  0.31712451  0.92920053  0.80841219    -0.12900
C817        C  0.10765393  0.92265481  0.80130929    -0.11400
C818        C  0.09109730  0.93970594  0.79898601    -0.12900
C819        C  0.08098779  0.64695280  0.54395565    -0.11400
C820        C  0.10120048  0.68747106  0.54552572    -0.12900
C821        C  0.31403148  0.91244189  0.56322856    -0.11400
C822        C  0.34717091  0.92779974  0.56143981    -0.12900
C823        C  0.09210459  0.93253500  0.54235051    -0.11400
C824        C  0.10877800  0.91555617  0.54505383    -0.12900
C825        C  0.02520582  0.52773968  0.89818074    -0.14500
C826        C  0.99448766  0.50783821  0.91811271    -0.29700
H827        H  0.05171247  0.04682278  0.91500044     0.14500
H828        H  0.96608564  0.49005016  0.90398753     0.15100
C829        C  0.00882923  0.52674967  0.66934584    -0.14500
C830        C  0.01848317  0.50558276  0.64664106    -0.29700
H831        H  0.99977957  0.54622200  0.65775613     0.14500
H832        H  0.53354283  0.49144105  0.65878985     0.15100
C833        C  0.42570286  0.59465093  0.76798891    -0.11400
C834        C  0.40872704  0.61121872  0.76428327    -0.12900
C835        C  0.42526417  0.84070357  0.76115523    -0.11400
C836        C  0.44398709  0.88117217  0.76301912    -0.12900
C837        C  0.20391798  0.61311659  0.74571748    -0.11400
C838        C  0.17070336  0.59722149  0.74768814    -0.12900
C839        C  0.42799726  0.60356741  0.00359703    -0.11400
C840        C  0.41199567  0.62125051  0.00080395    -0.12900
C841        C  0.44341469  0.87093877  0.51740637    -0.11400
C842        C  0.42472423  0.83053567  0.51441757    -0.12900
C843        C  0.17132279  0.59111549  0.49922233    -0.11400
C844        C  0.20469023  0.60749675  0.49714712    -0.12900
C845        C  0.32755442  0.64227867  0.85959773    -0.11400
C846        C  0.33609987  0.67922264  0.83966542     0.10700
C847        C  0.33777708  0.71365589  0.86117670    -0.11400
C848        C  0.33708527  0.71447417  0.90153019    -0.11400
C849        C  0.33433107  0.68065349  0.92194170     0.10700
C850        C  0.32657056  0.64293273  0.89980172    -0.11400
H851        H  0.32136288  0.61244073  0.84413801     0.14700
H852        H  0.33892988  0.73974268  0.84688320     0.14700
H853        H  0.33755281  0.74102920  0.91638808     0.14700
H854        H  0.32003904  0.61375833  0.91364396     0.14700
C855        C  0.33519387  0.70072405  0.61013428    -0.11400
C856        C  0.33664344  0.66827156  0.58923114     0.10700
C857        C  0.33268479  0.63399372  0.60996836    -0.11400
C858        C  0.33294232  0.63577532  0.65024814    -0.11400
C859        C  0.33724308  0.67195120  0.67159059     0.10700
C860        C  0.33550852  0.70254078  0.65052403    -0.11400
H861        H  0.33382858  0.72488599  0.59527022     0.14700
H862        H  0.32846241  0.60493894  0.59516302     0.14700
H863        H  0.32881770  0.60797619  0.66445144     0.14700
H864        H  0.33427707  0.72798497  0.66525008     0.14700
C865        C  0.83689675  0.17878407  0.04803818     0.31900
C866        C  0.83599897  0.16897498  0.46807797     0.31900
C867        C  0.79811072  0.15674023  0.02613018    -0.04300
C868        C  0.86061993  0.22579105  0.03250675    -0.05100
C869        C  0.85307656  0.15641098  0.02697310    -0.04900
C870        C  0.79795369  0.15028602  0.48546818    -0.04300
C871        C  0.86242942  0.21547869  0.49016989    -0.05100
C872        C  0.84940532  0.14299551  0.48738302    -0.05000
C873        C  0.76141086  0.13306048  0.47175056    -0.30300
N874        N  0.74016412  0.12372394  0.50228888     0.16200
C875        C  0.76172507  0.13832229  0.03619489    -0.30300
H876        H  0.75241181  0.13381128  0.06505197     0.18100
C877        C  0.88762196  0.25916510  0.48106580    -0.29300
N878        N  0.89946884  0.29673025  0.01859620     0.14900
C879        C  0.88530923  0.26964596  0.04784862    -0.29300
C880        C  0.87536158  0.13460831  0.47737088    -0.29600
N881        N  0.88923891  0.12816534  0.50943940     0.15400
H882        H  0.88535215  0.13586026  0.44920325     0.18000
C883        C  0.87413193  0.14109958  0.03780737    -0.29600
H884        H  0.88179015  0.13850562  0.06679786     0.18000
H885        H  0.89307090  0.28125403  0.07791809     0.18000
H886        H  0.75115646  0.12818598  0.44199524     0.18100
H887        H  0.89424263  0.27091749  0.45260540     0.18000
C888        C  0.83475797  0.16913707  0.29724931     0.31900
C889        C  0.83536699  0.17173172  0.21813666     0.31900
C890        C  0.79650864  0.14930959  0.27492214    -0.04300
C891        C  0.86011918  0.21597895  0.28204032    -0.05100
C892        C  0.84938037  0.14482481  0.27627068    -0.04900
C893        C  0.79674152  0.15055076  0.23504351    -0.04300
C894        C  0.86052168  0.21742576  0.24201340    -0.05100
C895        C  0.84962625  0.14599316  0.23605377    -0.05000
C896        C  0.76015390  0.13273042  0.22100586    -0.30300
N897        N  0.73822002  0.12101766  0.25122450     0.16200
C898        C  0.75989957  0.13083104  0.28416476    -0.30300
H899        H  0.74980463  0.12535620  0.31271505     0.18100
C900        C  0.88574338  0.26191803  0.23484650    -0.29300
N901        N  0.89986010  0.28684220  0.26892464     0.14900
C902        C  0.88488829  0.25946043  0.29787161    -0.29300
C903        C  0.87327756  0.13460061  0.22448801    -0.29600
N904        N  0.88633428  0.12582781  0.25582588     0.15400
H905        H  0.88209302  0.13502784  0.19584100     0.18000
C906        C  0.87329396  0.13347752  0.28741467    -0.29600
H907        H  0.88250660  0.13322845  0.31646449     0.18000
H908        H  0.89180450  0.27057440  0.32809102     0.18000
H909        H  0.75032135  0.12903061  0.19126224     0.18100
H910        H  0.89364460  0.27541569  0.20710859     0.18000
C911        C  0.62782643  0.07130459  0.01312195     0.78400
Tb912      Tb  0.96497132  0.02192281  0.03931845     1.80700
O913        O  0.61742609  0.07210066  0.04614313    -0.49700
O914        O  0.57311695  0.48799899  0.06917654    -0.57100
C915        C  0.55424441  0.10884893  0.03238153     0.94200
O916        O  0.94643981  0.06915852  0.05320731    -0.56600
Tb917      Tb  0.55168977  0.01859339  0.03118161     1.78100
O918        O  0.89803203  0.46931580  0.02023591    -0.57100
O919        O  0.49627029  0.45568826  0.00882359    -0.75900
O920        O  0.56708570  0.08967723  0.04864025    -0.75300
O921        O  0.52876711  0.02100393  0.47088548    -0.60500
C922        C  0.96709308  0.43266820  0.02799685     0.93800
O923        O  0.00525214  0.04476986  0.09399002    -0.72500
C924        C  0.89056732  0.96698467  0.06148942     0.77200
C925        C  0.57484853  0.46565396  0.04209198     0.78200
O926        O  0.60049093  0.04640850  0.98833841    -0.57700
O927        O  0.56396484  0.46962683  0.00967995    -0.49700
O928        O  0.97192567  0.99927622  0.47919140    -0.75700
O929        O  0.52406809  0.00796832  0.08925912    -0.59700
C930        C  0.51332799  0.02946257  0.10618577     0.92000
C931        C  0.49540527  0.00220771  0.45537632     0.93200
C932        C  0.94570013  0.07379717  0.52317059     0.77600
O933        O  0.91816699  0.99685490  0.08412609    -0.49100
O934        O  0.94530172  0.54311600  0.49847249    -0.50200
O935        O  0.95490263  0.45294934  0.04463488    -0.63100
O936        O  0.52074066  0.08750005  0.01645778    -0.64200
C937        C  0.62673125  0.06071681  0.25985498     0.78400
Tb938      Tb  0.96662616  0.01710460  0.28631183     1.80700
O939        O  0.61761652  0.06312262  0.29317592    -0.49700
O940        O  0.58701344  0.49049516  0.32944578    -0.57100
C941        C  0.54886942  0.09628142  0.27974165     0.94200
O942        O  0.95275220  0.06859075  0.30161116    -0.56600
Tb943      Tb  0.55213652  0.00838897  0.28112269     1.78100
O944        O  0.90424044  0.45966421  0.25741957    -0.57100
O945        O  0.50484126  0.44876318  0.29793214    -0.75900
O946        O  0.55989275  0.07450227  0.26369682    -0.75300
O947        O  0.51415874  0.97500089  0.22495644    -0.60500
C948        C  0.96894523  0.42243649  0.27963506     0.93800
O949        O  0.00354895  0.03998044  0.34360691    -0.72500
C950        C  0.89117172  0.96153513  0.30485884     0.77200
C951        C  0.58741598  0.46433950  0.30528596     0.78200
O952        O  0.59876122  0.03387576  0.23618230    -0.57700
O953        O  0.57422318  0.46266638  0.27210501    -0.49700
O954        O  0.97235942  0.99443512  0.22638170    -0.75700
O955        O  0.54639569  0.04081724  0.33537762    -0.59700
C956        C  0.51659147  0.02294423  0.35305559     0.92000
C957        C  0.50315615  0.99406204  0.20584793     0.93200
C958        C  0.94193224  0.06970422  0.26802717     0.77600
O959        O  0.91805208  0.98953018  0.32903467    -0.49100
O960        O  0.94855063  0.54495369  0.23986248    -0.50200
O961        O  0.95689156  0.44179468  0.26214354    -0.63100
O962        O  0.51729236  0.07730511  0.29487596    -0.64200
C963        C  0.68096763  0.36269290  0.01147265     0.31900
C964        C  0.67817566  0.35895073  0.09040265     0.31900
C965        C  0.66463754  0.38519714  0.03160165    -0.04300
C966        C  0.65700133  0.31542153  0.02630562    -0.05100
C967        C  0.71919336  0.38374321  0.03498085    -0.04900
C968        C  0.66284905  0.38317968  0.07153100    -0.04300
C969        C  0.65501521  0.31359286  0.06616726    -0.05100
C970        C  0.71771272  0.38208481  0.07486828    -0.05000
C971        C  0.64068324  0.39711248  0.08204138    -0.30300
N972        N  0.63049575  0.40867655  0.05027622     0.16200
C973        C  0.64463922  0.40132102  0.01936886    -0.30300
H974        H  0.63925637  0.40540304  0.98996841     0.18100
C975        C  0.63184849  0.26892496  0.07320045    -0.29300
N976        N  0.62107487  0.24412068  0.03928377     0.14900
C977        C  0.63626788  0.27170039  0.01049369    -0.29300
C978        C  0.75370559  0.39855415  0.09018145    -0.29600
N979        N  0.77651229  0.40946754  0.06081495     0.15400
H980        H  0.76236170  0.40119749  0.12017042     0.18000
C981        C  0.75586496  0.39991216  0.02722272    -0.29600
H982        H  0.76677366  0.40303139  0.99929015     0.18000
H983        H  0.63272911  0.26050662  0.98050531     0.18000
H984        H  0.63100584  0.39683968  0.11018968     0.18100
H985        H  0.62338231  0.25516676  0.10078032     0.18000
C986        C  0.67992430  0.35032456  0.26058403     0.31900
C987        C  0.68419652  0.34737325  0.33962750     0.31900
C988        C  0.66739644  0.37514652  0.28449554    -0.04300
C989        C  0.65522910  0.30333203  0.27583733    -0.05100
C990        C  0.71932038  0.36920644  0.27991076    -0.04900
C991        C  0.67001519  0.37397360  0.32439909    -0.04300
C992        C  0.65775986  0.30174713  0.31578833    -0.05100
C993        C  0.72179832  0.36766316  0.31982862    -0.05000
C994        C  0.65281832  0.39226421  0.34014129    -0.30300
N995        N  0.63939686  0.40361269  0.31105690     0.14400
C996        C  0.64712695  0.39241365  0.27721128    -0.30300
H997        H  0.63679470  0.39463483  0.24947147     0.18100
C998        C  0.63522451  0.25702067  0.32303091    -0.29300
N999        N  0.61867736  0.23208426  0.28918116     0.14900
C1000       C  0.63035506  0.25967042  0.26024459    -0.29300
C1001       C  0.75858347  0.38196555  0.32987911    -0.29600
N1002       N  0.77799290  0.39282846  0.29772431     0.15400
H1003       H  0.77030407  0.38338123  0.35814005     0.18000
C1004       C  0.75442437  0.38509348  0.26711480    -0.29600
H1005       H  0.76209395  0.38993324  0.23766216     0.18000
H1006       H  0.62157778  0.24856698  0.23017725     0.18000
H1007       H  0.64880397  0.39515377  0.37021677     0.18100
H1008       H  0.63148859  0.24338176  0.35068146     0.18000
C1009       C  0.71632445  0.38006649  0.44835250    -0.11400
C1010       C  0.68384288  0.34703119  0.46643597     0.10700
C1011       C  0.65044770  0.31767627  0.44233502    -0.11400
C1012       C  0.65087355  0.31741669  0.40205553    -0.11400
C1013       C  0.68470272  0.34652605  0.38394505     0.10700
C1014       C  0.71681987  0.37968552  0.40803527    -0.11400
H1015       H  0.74115862  0.40756478  0.46517381     0.14700
H1016       H  0.62353342  0.29530230  0.45456355     0.14700
H1017       H  0.62423278  0.29494658  0.38508612     0.14700
H1018       H  0.74205277  0.40672525  0.39593582     0.14700
C1019       C  0.68261436  0.38861220  0.19917423    -0.11400
C1020       C  0.67948957  0.35283695  0.21646381     0.10700
C1021       C  0.68092626  0.32248224  0.19214741    -0.11400
C1022       C  0.68082663  0.32474777  0.15205330    -0.11400
C1023       C  0.67849969  0.35688107  0.13450230     0.10700
C1024       C  0.68174364  0.39035803  0.15907734    -0.11400
H1025       H  0.68739942  0.41662616  0.21646330     0.14700
H1026       H  0.68280874  0.29728104  0.20417316     0.14700
H1027       H  0.68311664  0.30149841  0.13483641     0.14700
H1028       H  0.68519558  0.41912884  0.14758107     0.14700
C1029       C  0.57350526  0.14450854  0.28165364    -0.11400
C1030       C  0.59427553  0.18501905  0.28477016    -0.12900
C1031       C  0.85025116  0.42807989  0.29405622    -0.11400
C1032       C  0.81667216  0.41063278  0.29625358    -0.12900
C1033       C  0.61971405  0.42292972  0.31443606    -0.11400
C1034       C  0.60374883  0.44083181  0.31343367    -0.12900
C1035       C  0.57828777  0.15679156  0.03282793    -0.11400
C1036       C  0.59816872  0.19718317  0.03504334    -0.12900
C1037       C  0.81546289  0.42807527  0.06366375    -0.11400
C1038       C  0.84907513  0.44560440  0.06213976    -0.12900
C1039       C  0.59091999  0.44119022  0.04701474    -0.11400
C1040       C  0.60827108  0.42496645  0.04917327    -0.12900
C1041       C  0.52102326  0.02656781  0.39430631    -0.14500
C1042       C  0.49071269  0.00346982  0.41460897    -0.29700
H1043       H  0.55545573  0.55188957  0.41304063     0.14500
H1044       H  0.46200936  0.98392136  0.40098779     0.15100
C1045       C  0.50809298  0.99569803  0.16527985    -0.14500
C1046       C  0.50778445  0.02604157  0.14649247    -0.29700
H1047       H  0.51390505  0.97365509  0.15125276     0.14500
H1048       H  0.05474202  0.03740316  0.16001049     0.15100
C1049       C  0.92588144  0.09352690  0.25968240    -0.11400
C1050       C  0.90888354  0.11003170  0.25630263    -0.12900
C1051       C  0.92481084  0.33380376  0.27350050    -0.11400
C1052       C  0.94546930  0.37425981  0.27699875    -0.12900
C1053       C  0.69921682  0.10170889  0.24935937    -0.11400
C1054       C  0.66568731  0.08407584  0.25109950    -0.12900
C1055       C  0.93058230  0.09847910  0.51468390    -0.11400
C1056       C  0.91312695  0.11430993  0.51096215    -0.12900
C1057       C  0.94362104  0.38437819  0.02544923    -0.11400
C1058       C  0.92365070  0.34383772  0.02253746    -0.12900
C1059       C  0.66720255  0.09397397  0.00551305    -0.11400
C1060       C  0.70055123  0.11037937  0.00310639    -0.12900
C1061       C  0.83036997  0.13299190  0.36053734    -0.11400
C1062       C  0.83281849  0.16733691  0.34138134     0.10700
C1063       C  0.83048324  0.19819120  0.36389618    -0.11400
C1064       C  0.83103919  0.19834495  0.40425994    -0.11400
C1065       C  0.83374583  0.16749285  0.42366013     0.10700
C1066       C  0.83094967  0.13314491  0.40077557    -0.11400
H1067       H  0.82696431  0.10502639  0.34454953     0.14700
H1068       H  0.82852060  0.22260917  0.35030755     0.14700
H1069       H  0.82958740  0.22293281  0.42036555     0.14700
H1070       H  0.82813752  0.10538273  0.41370615     0.14700
C1071       C  0.83495360  0.20794925  0.11572902    -0.11400
C1072       C  0.83504974  0.17611978  0.09205957     0.10700
C1073       C  0.82858400  0.13876435  0.10967506    -0.11400
C1074       C  0.82825113  0.13704986  0.14979757    -0.11400
C1075       C  0.83393350  0.17240004  0.17391220     0.10700
C1076       C  0.83434683  0.20608268  0.15585523    -0.11400
H1077       H  0.83476470  0.23411050  0.10329255     0.14700
H1078       H  0.82334444  0.11037199  0.09248051     0.14700
H1079       H  0.82302505  0.10755686  0.16179460     0.14700
H1080       H  0.83393720  0.23102820  0.17270197     0.14700
C1081       C  0.83662039  0.17060495  0.54743802     0.31900
C1082       C  0.83644904  0.18079248  0.96883783     0.31900
C1083       C  0.79836119  0.15112325  0.52544081    -0.04300
C1084       C  0.86282831  0.21624811  0.53034081    -0.05100
C1085       C  0.84946593  0.14364713  0.52789842    -0.04900
C1086       C  0.79769347  0.15775325  0.98622286    -0.04300
C1087       C  0.86047474  0.22683178  0.99238585    -0.05100
C1088       C  0.85294125  0.15736097  0.98688578    -0.05000
C1089       C  0.76078381  0.13997337  0.97304914    -0.30300
N1090       N  0.73936318  0.12834205  0.00378032     0.16200
C1091       C  0.76219114  0.13432797  0.53510253    -0.30300
H1092       H  0.75265285  0.13058948  0.56383163     0.18100
C1093       C  0.88528297  0.27130293  0.98479753    -0.29300
N1094       N  0.90290573  0.28582328  0.51421484     0.14900
C1095       C  0.88844926  0.26029886  0.54439420    -0.29300
C1096       C  0.87390540  0.14227504  0.97476004    -0.29600
N1097       N  0.88592230  0.13188532  0.00593103     0.15400
H1098       H  0.88120264  0.14059723  0.94578090     0.18000
C1099       C  0.87502561  0.13519440  0.54026070    -0.29600
H1100       H  0.88462550  0.13687369  0.56967256     0.18000
H1101       H  0.89595150  0.27311984  0.57422518     0.18000
H1102       H  0.75055695  0.13697728  0.94359955     0.18100
H1103       H  0.89321590  0.28451967  0.95698224     0.18000
C1104       C  0.83730072  0.18268283  0.79820577     0.31900
C1105       C  0.83758337  0.17931790  0.71873328     0.31900
C1106       C  0.79881610  0.15981287  0.77551480    -0.04300
C1107       C  0.86132105  0.22834436  0.78039746    -0.05100
C1108       C  0.85338181  0.15884919  0.77999098    -0.04900
C1109       C  0.79879849  0.15812841  0.73548094    -0.04300
C1110       C  0.86147645  0.22664607  0.74010584    -0.05100
C1111       C  0.85364448  0.15704609  0.73983006    -0.05000
C1112       C  0.76229011  0.14060561  0.72125561    -0.30300
N1113       N  0.74076556  0.13187903  0.75148945     0.16200
C1114       C  0.76259978  0.14343473  0.78461800    -0.30300
H1115       H  0.75300706  0.14113322  0.81318253     0.18100
C1116       C  0.88541731  0.27035083  0.73033586    -0.29300
N1117       N  0.89912952  0.29787020  0.76300099     0.14900
C1118       C  0.88528934  0.27297336  0.79362201    -0.29300
C1119       C  0.87689382  0.14420277  0.73075590    -0.29600
N1120       N  0.88943870  0.13723839  0.76368219     0.15400
H1121       H  0.88564156  0.14212829  0.70263709     0.18000
C1122       C  0.87617394  0.14701243  0.79380251    -0.29600
H1123       H  0.88406874  0.14740396  0.82358419     0.18000
H1124       H  0.89276888  0.28668702  0.82318561     0.18000
H1125       H  0.75236917  0.13564680  0.69136788     0.18100
H1126       H  0.89277234  0.28155535  0.70180722     0.18000
C1127       C  0.62851890  0.06507181  0.50854906     0.78400
Tb1128     Tb  0.96701770  0.01804204  0.54105895     1.80700
O1129       O  0.61707539  0.06598363  0.54091956    -0.49700
O1130       O  0.57717957  0.47479048  0.56451774    -0.57100
C1131       C  0.55051329  0.09518739  0.53394775     0.94200
O1132       O  0.95241859  0.06857989  0.55707535    -0.56600
Tb1133     Tb  0.55251210  0.00825321  0.52516898     1.78100
O1134       O  0.90013633  0.45533618  0.52191051    -0.57100
O1135       O  0.49985521  0.44346670  0.50419321    -0.75900
O1136       O  0.56450776  0.07625931  0.54801185    -0.75300
O1137       O  0.52705329  0.02509714  0.97362783    -0.60500
C1138       C  0.96975726  0.42128674  0.52250790     0.93800
O1139       O  0.00796287  0.03855119  0.59452416    -0.72500
C1140       C  0.89251233  0.96628573  0.56425283     0.77200
C1141       C  0.57989519  0.45383638  0.53691453     0.78200
O1142       O  0.60217700  0.03807960  0.48355344    -0.57700
O1143       O  0.56990997  0.45905230  0.50453484    -0.49700
O1144       O  0.96654228  0.99656502  0.97893927    -0.75700
O1145       O  0.52767014  0.99376974  0.58451954    -0.59700
C1146       C  0.51722448  0.01411730  0.60361926     0.92000
C1147       C  0.49464430  0.01155575  0.95824590     0.93200
C1148       C  0.93983608  0.07359916  0.01898170     0.77600
O1149       O  0.92114118  0.99278879  0.58732901    -0.49100
O1150       O  0.94268535  0.55223675  0.99195241    -0.50200
O1151       O  0.95824757  0.44026599  0.54255157    -0.63100
O1152       O  0.51710375  0.07353695  0.51791326    -0.64200
C1153       C  0.62897392  0.07121150  0.75858556     0.78400
Tb1154     Tb  0.96636212  0.02353655  0.78840972     1.80700
O1155       O  0.61792008  0.07765419  0.78926781    -0.49700
O1156       O  0.57552459  0.48086698  0.81650862    -0.57100
C1157       C  0.55647964  0.10473875  0.79483191     0.94200
O1158       O  0.95177100  0.07307318  0.80944369    -0.56600
Tb1159     Tb  0.55383395  0.01587039  0.77836662     1.78100
O1160       O  0.90430464  0.46696690  0.76569466    -0.57100
O1161       O  0.49835124  0.44726498  0.78800317    -0.75900
O1162       O  0.56660343  0.08167574  0.80848392    -0.75300
O1163       O  0.53569036  0.03537166  0.72404971    -0.60500
C1164       C  0.96737934  0.43354236  0.77213258     0.93800
O1165       O  0.98738653  0.00666206  0.84214221    -0.72500
C1166       C  0.88974095  0.96578044  0.80299686     0.77200
C1167       C  0.57728113  0.45884113  0.78913335     0.78200
O1168       O  0.60259537  0.03887265  0.73661626    -0.57700
O1169       O  0.56706036  0.46367234  0.75669717    -0.49700
O1170       O  0.99693225  0.04572076  0.73226776    -0.75700
O1171       O  0.52213892  0.99257416  0.83384427    -0.59700
C1172       C  0.51128894  0.01123889  0.85474966     0.92000
C1173       C  0.50374068  0.02079994  0.70706562     0.93200
C1174       C  0.94426717  0.08000476  0.77656574     0.77600
O1175       O  0.91595410  0.98905551  0.82919567    -0.49100
O1176       O  0.94894676  0.55753865  0.74681315    -0.50200
O1177       O  0.95514496  0.45486020  0.75911632    -0.63100
O1178       O  0.52456575  0.08715511  0.77639892    -0.64200
C1179       C  0.68324906  0.34654909  0.51086979     0.31900
C1180       C  0.68043048  0.34673858  0.59019443     0.31900
C1181       C  0.66912663  0.37231838  0.52948245    -0.04300
C1182       C  0.65731701  0.30039490  0.52729406    -0.05100
C1183       C  0.72101701  0.36597795  0.53475263    -0.04900
C1184       C  0.66738683  0.37224172  0.56954170    -0.04300
C1185       C  0.65541258  0.30048807  0.56734399    -0.05100
C1186       C  0.71953901  0.36637859  0.57475368    -0.05000
C1187       C  0.64484943  0.38600386  0.57854146    -0.30300
N1188       N  0.63463876  0.39606743  0.54591607     0.16200
C1189       C  0.64867365  0.38731540  0.51576226    -0.30300
H1190       H  0.64268690  0.38935995  0.48594329     0.18100
C1191       C  0.63021483  0.25648363  0.57560669    -0.29300
N1192       N  0.61793325  0.23030540  0.54227396     0.14900
C1193       C  0.63430416  0.25627282  0.51272799    -0.29300
C1194       C  0.75524694  0.38236675  0.59053575    -0.29600
N1195       N  0.77785249  0.39089612  0.56139574     0.15400
H1196       H  0.76395934  0.38684657  0.62076321     0.18000
C1197       C  0.75737792  0.38043688  0.52749933    -0.29600
H1198       H  0.76829750  0.38232609  0.49976479     0.18000
H1199       H  0.63009779  0.24363127  0.48308454     0.18000
H1200       H  0.63477351  0.38639907  0.60632037     0.18100
H1201       H  0.62151173  0.24413125  0.60360688     0.18000
C1202       C  0.68123040  0.35222088  0.76167928     0.31900
C1203       C  0.68433897  0.35936152  0.84124397     0.31900
C1204       C  0.66148451  0.37157455  0.77998736    -0.04300
C1205       C  0.66254147  0.30799176  0.78149795    -0.05100
C1206       C  0.72112474  0.38143892  0.78259564    -0.04900
C1207       C  0.66337085  0.37543170  0.82008975    -0.04300
C1208       C  0.66466644  0.31173229  0.82179832    -0.05100
C1209       C  0.72305137  0.38497123  0.82300470    -0.05000
C1210       C  0.64310898  0.39172945  0.83063839    -0.30300
N1211       N  0.62879013  0.39727086  0.79822059     0.14400
C1212       C  0.63941000  0.38485183  0.76725277    -0.30300
H1213       H  0.63127745  0.38518986  0.73774270     0.18100
C1214       C  0.64419573  0.26879288  0.83361029    -0.29300
N1215       N  0.62907571  0.23969811  0.80196132     0.14900
C1216       C  0.63940136  0.26280552  0.77018174    -0.29300
C1217       C  0.75952011  0.39954205  0.83509811    -0.29600
N1218       N  0.77946124  0.40677780  0.80385166     0.15400
H1219       H  0.77024577  0.40197999  0.86417178     0.18000
C1220       C  0.75633466  0.39512394  0.77180075    -0.29600
H1221       H  0.76391117  0.39401515  0.74280634     0.18000
H1222       H  0.62907662  0.24749145  0.74120796     0.18000
H1223       H  0.63891524  0.39879318  0.85960015     0.18100
H1224       H  0.63933807  0.25917395  0.86281467     0.18000
C1225       C  0.71347310  0.39896781  0.94959255    -0.11400
C1226       C  0.68138860  0.36478407  0.96734351     0.10700
C1227       C  0.64844676  0.33420727  0.94313616    -0.11400
C1228       C  0.64950230  0.33324857  0.90298754    -0.11400
C1229       C  0.68348474  0.36291553  0.88539076     0.10700
C1230       C  0.71466914  0.39782405  0.90938928    -0.11400
H1231       H  0.73760260  0.42726810  0.96656927     0.14700
H1232       H  0.62168242  0.31066114  0.95518725     0.14700
H1233       H  0.62354071  0.30888066  0.88560469     0.14700
H1234       H  0.73973692  0.42516481  0.89733382     0.14700
C1235       C  0.68636133  0.38553667  0.69703281    -0.11400
C1236       C  0.68121105  0.35032440  0.71721984     0.10700
C1237       C  0.68084478  0.31688174  0.69552999    -0.11400
C1238       C  0.68056075  0.31569176  0.65510895    -0.11400
C1239       C  0.68068940  0.34790330  0.63465445     0.10700
C1240       C  0.68598109  0.38430367  0.65672216    -0.11400
H1241       H  0.69128408  0.41472139  0.71246615     0.14700
H1242       H  0.68206610  0.29227916  0.70964680     0.14700
H1243       H  0.68095280  0.28983415  0.63992552     0.14700
H1244       H  0.69097194  0.41282213  0.64304805     0.14700
C1245       C  0.58238933  0.15263713  0.79967053    -0.11400
C1246       C  0.60411600  0.19293822  0.80167366    -0.12900
C1247       C  0.85128343  0.43970759  0.80278714    -0.11400
C1248       C  0.81783758  0.42308216  0.80422512    -0.12900
C1249       C  0.60810819  0.41542483  0.79660985    -0.11400
C1250       C  0.59211960  0.43318065  0.79401156    -0.12900
C1251       C  0.57345495  0.14310055  0.53635712    -0.11400
C1252       C  0.59362718  0.18343421  0.53899946    -0.12900
C1253       C  0.81682090  0.40968038  0.56472764    -0.11400
C1254       C  0.85054444  0.42776889  0.56356228    -0.12900
C1255       C  0.59571670  0.42916798  0.54141470    -0.11400
C1256       C  0.61268177  0.41255882  0.54370897    -0.12900
C1257       C  0.51365813  0.00844179  0.89547239    -0.14500
C1258       C  0.49026836  0.01057050  0.91717256    -0.29700
H1259       H  0.55437460  0.54409650  0.91200081     0.14500
H1260       H  0.46756001  0.01147392  0.90453577     0.15100
C1261       C  0.50166235  0.02367784  0.66639162    -0.14500
C1262       C  0.52317861  0.01793100  0.64476091    -0.29700
H1263       H  0.47942989  0.02542301  0.65374549     0.14500
H1264       H  0.03147776  0.99558590  0.65996880     0.15100
C1265       C  0.92879034  0.10487829  0.77058324    -0.11400
C1266       C  0.91183532  0.12135713  0.76663267    -0.12900
C1267       C  0.92299543  0.34490229  0.76499776    -0.11400
C1268       C  0.94313079  0.38537993  0.76761825    -0.12900
C1269       C  0.70192788  0.11342699  0.74959230    -0.11400
C1270       C  0.66839196  0.09586720  0.75121031    -0.12900
C1271       C  0.92358347  0.09701202  0.00950184    -0.11400
C1272       C  0.90702543  0.11410701  0.00607604    -0.12900
C1273       C  0.94727663  0.37321720  0.51937185    -0.11400
C1274       C  0.92738021  0.33278859  0.51689979    -0.12900
C1275       C  0.66809699  0.08929444  0.50212468    -0.11400
C1276       C  0.70149688  0.10598002  0.50077379    -0.12900
C1277       C  0.82711870  0.14426268  0.86101283    -0.11400
C1278       C  0.83506545  0.18174910  0.84235491     0.10700
C1279       C  0.83674380  0.21536811  0.86517420    -0.11400
C1280       C  0.83629941  0.21468454  0.90546134    -0.11400
C1281       C  0.83455480  0.18062249  0.92449339     0.10700
C1282       C  0.82707016  0.14380614  0.90120523    -0.11400
H1283       H  0.82093310  0.11495200  0.84452606     0.14700
H1284       H  0.83757649  0.24182433  0.85200028     0.14700
H1285       H  0.83665277  0.24059560  0.92152149     0.14700
H1286       H  0.82095107  0.11427724  0.91399090     0.14700
C1287       C  0.83416312  0.20433422  0.61240078    -0.11400
C1288       C  0.83515856  0.17140109  0.59172915     0.10700
C1289       C  0.83139227  0.13743818  0.61281051    -0.11400
C1290       C  0.83154409  0.13958706  0.65315282    -0.11400
C1291       C  0.83587068  0.17600624  0.67420955     0.10700
C1292       C  0.83455256  0.20662582  0.65278705    -0.11400
H1293       H  0.83309821  0.22857987  0.59729768     0.14700
H1294       H  0.82748894  0.10845257  0.59821991     0.14700
H1295       H  0.82763012  0.11207246  0.66770878     0.14700
H1296       H  0.83351125  0.23235524  0.66718168     0.14700
C1297       C  0.83933817  0.68171882  0.05065016     0.31900
C1298       C  0.84439410  0.67638009  0.47158497     0.31900
C1299       C  0.80033931  0.66101097  0.02945851    -0.04300
C1300       C  0.86377132  0.72830045  0.03445677    -0.05100
C1301       C  0.85375248  0.65752761  0.02920412    -0.04900
C1302       C  0.80548737  0.65607542  0.48787597    -0.04300
C1303       C  0.86920256  0.72304358  0.49390252    -0.05100
C1304       C  0.85884580  0.65185807  0.49200637    -0.05000
C1305       C  0.76889665  0.63793527  0.47327602    -0.30300
N1306       N  0.74671467  0.62773518  0.50320328     0.16200
C1307       C  0.76429453  0.64410560  0.03989924    -0.30300
H1308       H  0.75526894  0.64021376  0.06885369     0.18100
C1309       C  0.89285787  0.76707058  0.48492651    -0.29300
N1310       N  0.90173046  0.79899162  0.01969070     0.14900
C1311       C  0.88838844  0.77233252  0.04929478    -0.29300
C1312       C  0.88032773  0.63653162  0.48249544    -0.29600
N1313       N  0.89124666  0.62694226  0.51502061     0.15400
H1314       H  0.88917129  0.63457639  0.45441551     0.18000
C1315       C  0.87696217  0.64499653  0.03973742    -0.29600
H1316       H  0.88651315  0.64462380  0.06858781     0.18000
H1317       H  0.89622870  0.78435815  0.07928112     0.18000
H1318       H  0.75922479  0.63287963  0.44329484     0.18100
H1319       H  0.89970895  0.77907146  0.45657915     0.18000
C1320       C  0.84688932  0.67796875  0.30086598     0.31900
C1321       C  0.84599963  0.67903077  0.22153280     0.31900
C1322       C  0.80830942  0.65773100  0.27914729    -0.04300
C1323       C  0.87178091  0.72454278  0.28490292    -0.05100
C1324       C  0.86133001  0.65338357  0.27982980    -0.04900
C1325       C  0.80777323  0.65822852  0.23923529    -0.04300
C1326       C  0.87138924  0.72508176  0.24475524    -0.05100
C1327       C  0.86086163  0.65379992  0.23957009    -0.05000
C1328       C  0.77113283  0.64120558  0.22595187    -0.30300
N1329       N  0.74992727  0.63065823  0.25668132     0.16200
C1330       C  0.77214269  0.64052131  0.28918454    -0.30300
H1331       H  0.76274867  0.63610148  0.31800883     0.18100
C1332       C  0.89454260  0.76943855  0.23667683    -0.29300
N1333       N  0.90815270  0.79525076  0.27027278     0.14900
C1334       C  0.89499241  0.76859898  0.29986546    -0.29300
C1335       C  0.88238819  0.63938668  0.22762218    -0.29600
N1336       N  0.89489769  0.62959366  0.25879716     0.15400
H1337       H  0.89011963  0.63823324  0.19874950     0.18000
C1338       C  0.88332649  0.63917477  0.29066231    -0.29600
H1339       H  0.89213626  0.63804632  0.31962404     0.18000
H1340       H  0.90148593  0.78064832  0.32987631     0.18000
H1341       H  0.76082818  0.63742220  0.19638586     0.18100
H1342       H  0.90077090  0.78233109  0.20860671     0.18000
C1343       C  0.63021594  0.57717938  0.01444029     0.78400
Tb1344     Tb  0.96383005  0.52163301  0.03425990     1.80700
O1345       O  0.61899300  0.57603905  0.04738269    -0.49700
O1346       O  0.57086961  0.98587299  0.07366956    -0.57100
C1347       C  0.55748524  0.61432904  0.04114986     0.94200
O1348       O  0.95417472  0.57662318  0.05028822    -0.56600
Tb1349     Tb  0.55381659  0.52322663  0.03044937     1.78100
O1350       O  0.90011272  0.96265670  0.02899043    -0.57100
O1351       O  0.49329957  0.95254400  0.00918976    -0.75900
O1352       O  0.57016483  0.59322543  0.05334228    -0.75300
O1353       O  0.53410160  0.52868240  0.47605496    -0.60500
C1354       C  0.96885285  0.93506196  0.02745689     0.93800
O1355       O  0.00212858  0.54908720  0.09037020    -0.72500
C1356       C  0.88831113  0.46913808  0.05380229     0.77200
C1357       C  0.57233693  0.96161162  0.04835918     0.78200
O1358       O  0.60356361  0.55354186  0.98868075    -0.57700
O1359       O  0.56123250  0.96330508  0.01518580    -0.49700
O1360       O  0.96980455  0.48514356  0.47685737    -0.75700
O1361       O  0.52754896  0.51256095  0.08962413    -0.59700
C1362       C  0.51660942  0.53353232  0.10729071     0.92000
C1363       C  0.50077842  0.50738208  0.45970843     0.93200
C1364       C  0.94263990  0.56463206  0.52563698     0.77600
O1365       O  0.91605700  0.49349215  0.07837950    -0.49100
O1366       O  0.95096336  0.05287593  0.49785481    -0.50200
O1367       O  0.96050820  0.95597277  0.04959744    -0.63100
O1368       O  0.52407775  0.59502818  0.02549719    -0.64200
C1369       C  0.63845025  0.57066718  0.26646768     0.78400
Tb1370     Tb  0.96856883  0.51108478  0.27993679     1.80700
O1371       O  0.62862152  0.56845320  0.30027717    -0.49700
O1372       O  0.57765529  0.98680033  0.32804110    -0.57100
C1373       C  0.55940912  0.60477312  0.28643257     0.94200
O1374       O  0.95833281  0.56516755  0.29893951    -0.56600
Tb1375     Tb  0.56295851  0.51664248  0.28533435     1.78100
O1376       O  0.90179197  0.95937893  0.27230104    -0.57100
O1377       O  0.49506183  0.94222751  0.29787335    -0.75900
O1378       O  0.57157561  0.58407715  0.27072688    -0.75300
O1379       O  0.52793503  0.48695973  0.22738613    -0.60500
C1380       C  0.97041608  0.93057432  0.27701802     0.93800
O1381       O  0.98860805  0.50275025  0.33925754    -0.72500
C1382       C  0.89054805  0.45342888  0.28970985     0.77200
C1383       C  0.57846462  0.95951467  0.30585265     0.78200
O1384       O  0.61086444  0.54773404  0.24149016    -0.57700
O1385       O  0.56452319  0.95476720  0.27225406    -0.49700
O1386       O  0.99940412  0.52044470  0.22433852    -0.75700
O1387       O  0.55465100  0.54518217  0.34071723    -0.59700
C1388       C  0.52408415  0.52659893  0.35723280     0.92000
C1389       C  0.51635172  0.50580657  0.20887628     0.93200
C1390       C  0.94733326  0.56843598  0.26628433     0.77600
O1391       O  0.91549646  0.47390848  0.31745307    -0.49100
O1392       O  0.94453575  0.04602381  0.24309816    -0.50200
O1393       O  0.96082867  0.95089113  0.29802647    -0.63100
O1394       O  0.52738734  0.58470684  0.30078773    -0.64200
C1395       C  0.68415754  0.86601903  0.02218550     0.31900
C1396       C  0.68372849  0.86601921  0.10149634     0.31900
C1397       C  0.66674982  0.88756401  0.04173935    -0.04300
C1398       C  0.66215328  0.81978373  0.03876156    -0.05100
C1399       C  0.72317326  0.88972487  0.04483986    -0.04900
C1400       C  0.66623849  0.88750032  0.08186274    -0.04300
C1401       C  0.66133934  0.81970168  0.07880871    -0.05100
C1402       C  0.72285728  0.88992873  0.08495273    -0.05000
C1403       C  0.64261425  0.89942603  0.09207538    -0.30300
N1404       N  0.63028396  0.90797789  0.05991889     0.16200
C1405       C  0.64442161  0.90048346  0.02907388    -0.30300
H1406       H  0.63761470  0.90240786  0.99949359     0.18100
C1407       C  0.63861600  0.77545416  0.08727925    -0.29300
N1408       N  0.62683461  0.74941894  0.05390947     0.14900
C1409       C  0.64111702  0.77569857  0.02424631    -0.29300
C1410       C  0.75849905  0.90413066  0.09934219    -0.29600
N1411       N  0.77999190  0.91197638  0.06935902     0.15400
H1412       H  0.76749724  0.90632675  0.12912293     0.18000
C1413       C  0.75877011  0.90237154  0.03618833    -0.29600
H1414       H  0.76819320  0.90233264  0.00794851     0.18000
H1415       H  0.63617678  0.76328258  0.99444158     0.18000
H1416       H  0.63344011  0.89980252  0.12035692     0.18100
H1417       H  0.63069079  0.76292950  0.11535133     0.18000
C1418       C  0.68358143  0.85999350  0.27180764     0.31900
C1419       C  0.68414526  0.85517847  0.35080697     0.31900
C1420       C  0.66881169  0.88302145  0.29452219    -0.04300
C1421       C  0.65908220  0.81247041  0.28609322    -0.05100
C1422       C  0.72224060  0.87986671  0.29323159    -0.04900
C1423       C  0.66943848  0.88088018  0.33449417    -0.04300
C1424       C  0.65976195  0.80987692  0.32604721    -0.05100
C1425       C  0.72275548  0.87730727  0.33306304    -0.05000
C1426       C  0.64944645  0.89629813  0.34859315    -0.30300
N1427       N  0.63657123  0.90705742  0.31848221     0.14400
C1428       C  0.64719992  0.89810842  0.28558770    -0.30300
H1429       H  0.63761608  0.89990028  0.25724716     0.18100
C1430       C  0.63900932  0.76482439  0.33218394    -0.29300
N1431       N  0.62502235  0.74066118  0.29773520     0.14900
C1432       C  0.63682938  0.76906346  0.26943332    -0.29300
C1433       C  0.75908807  0.89188386  0.34529175    -0.29600
N1434       N  0.78009438  0.90376663  0.31434443     0.15400
H1435       H  0.76930051  0.89249507  0.37413089     0.18000
C1436       C  0.75809179  0.89659043  0.28249746    -0.29600
H1437       H  0.76724775  0.90187298  0.25357735     0.18000
H1438       H  0.63013900  0.75871629  0.23907435     0.18000
H1439       H  0.64301742  0.89729774  0.37809168     0.18100
H1440       H  0.63506941  0.75039027  0.35945499     0.18000
C1441       C  0.71499704  0.88949796  0.45948019    -0.11400
C1442       C  0.68480427  0.85301410  0.47743296     0.10700
C1443       C  0.65232016  0.82036300  0.45345022    -0.11400
C1444       C  0.65210670  0.82087830  0.41320069    -0.11400
C1445       C  0.68432180  0.85419905  0.39509291     0.10700
C1446       C  0.71475711  0.89007510  0.41920332    -0.11400
H1447       H  0.73853356  0.91849378  0.47647560     0.14700
H1448       H  0.62637807  0.79489811  0.46573317     0.14700
H1449       H  0.62602366  0.79581430  0.39642805     0.14700
H1450       H  0.73827306  0.91930426  0.40701847     0.14700
C1451       C  0.68678659  0.89761614  0.20959709    -0.11400
C1452       C  0.68533782  0.86329866  0.22778222     0.10700
C1453       C  0.68967691  0.83463863  0.20451809    -0.11400
C1454       C  0.68978877  0.83609512  0.16435055    -0.11400
C1455       C  0.68524174  0.86601803  0.14577260     0.10700
C1456       C  0.68649784  0.89878818  0.16942191    -0.11400
H1457       H  0.68957939  0.92481629  0.22623209     0.14700
H1458       H  0.69301992  0.81091813  0.21740268     0.14700
H1459       H  0.69338193  0.81354336  0.14779413     0.14700
H1460       H  0.68847099  0.92636905  0.15715510     0.14700
C1461       C  0.58315153  0.65308737  0.28876409    -0.11400
C1462       C  0.60261027  0.69361566  0.29237070    -0.12900
C1463       C  0.85182580  0.93729400  0.31233277    -0.11400
C1464       C  0.81854187  0.92070675  0.31463715    -0.12900
C1465       C  0.61430112  0.92314079  0.31975667    -0.11400
C1466       C  0.59635484  0.93841942  0.31645789    -0.12900
C1467       C  0.58182053  0.66224738  0.04601864    -0.11400
C1468       C  0.60262578  0.70254345  0.05014932    -0.12900
C1469       C  0.81818568  0.92749832  0.07151808    -0.11400
C1470       C  0.85145110  0.94337358  0.06995201    -0.12900
C1471       C  0.58872538  0.93784180  0.05559675    -0.11400
C1472       C  0.60681784  0.92259570  0.05851236    -0.12900
C1473       C  0.52709780  0.53033645  0.39861489    -0.14500
C1474       C  0.49646035  0.50623447  0.41839744    -0.29700
H1475       H  0.54972022  0.04616853  0.40796935     0.14500
H1476       H  0.46805043  0.48461417  0.40409576     0.15100
C1477       C  0.52023794  0.50699730  0.16798311    -0.14500
C1478       C  0.51560786  0.53376433  0.14844481    -0.29700
H1479       H  0.52718083  0.48605544  0.15391650     0.14500
H1480       H  0.99997527  0.54506057  0.16196357     0.15100
C1481       C  0.93216648  0.59392571  0.26054371    -0.11400
C1482       C  0.91602634  0.61174364  0.25866089    -0.12900
C1483       C  0.92995444  0.84220676  0.27361199    -0.11400
C1484       C  0.94824879  0.88255784  0.27566605    -0.12900
C1485       C  0.71105762  0.61204660  0.25570755    -0.11400
C1486       C  0.67760756  0.59463800  0.25807215    -0.12900
C1487       C  0.92741245  0.59010719  0.52035632    -0.11400
C1488       C  0.91170214  0.60832146  0.51725982    -0.12900
C1489       C  0.94557696  0.88673411  0.02568431    -0.11400
C1490       C  0.92566563  0.84615637  0.02320079    -0.12900
C1491       C  0.66976892  0.60037367  0.00799105    -0.11400
C1492       C  0.70315996  0.61677321  0.00666452    -0.12900
C1493       C  0.84136618  0.64159333  0.36429260    -0.11400
C1494       C  0.84508532  0.67661723  0.34504238     0.10700
C1495       C  0.84230720  0.70730984  0.36722251    -0.11400
C1496       C  0.84144132  0.70673535  0.40747251    -0.11400
C1497       C  0.84342627  0.67552420  0.42718965     0.10700
C1498       C  0.84059841  0.64108853  0.40446391    -0.11400
H1499       H  0.83770591  0.61344247  0.34838141     0.14700
H1500       H  0.84053063  0.73175566  0.35344329     0.14700
H1501       H  0.83908544  0.73080604  0.42315319     0.14700
H1502       H  0.83644879  0.61263119  0.41738615     0.14700
C1503       C  0.83925031  0.71175071  0.11894072    -0.11400
C1504       C  0.83896249  0.67986448  0.09493603     0.10700
C1505       C  0.83510883  0.64398831  0.11286179    -0.11400
C1506       C  0.83750765  0.64378850  0.15307054    -0.11400
C1507       C  0.84321843  0.67908759  0.17721246     0.10700
C1508       C  0.84110332  0.71119898  0.15926089    -0.11400
H1509       H  0.83775452  0.73707860  0.10660863     0.14700
H1510       H  0.82951986  0.61529654  0.09589190     0.14700
H1511       H  0.83374210  0.61506768  0.16507626     0.14700
H1512       H  0.84054569  0.73588469  0.17636039     0.14700
C1513       C  0.84309043  0.67764608  0.55081794     0.31900
C1514       C  0.83737612  0.68231600  0.97120442     0.31900
C1515       C  0.80497040  0.65671322  0.52780591    -0.04300
C1516       C  0.86859295  0.72369587  0.53402263    -0.05100
C1517       C  0.85805091  0.65254853  0.53217419    -0.04900
C1518       C  0.79933012  0.66127206  0.98942801    -0.04300
C1519       C  0.86277796  0.72868789  0.99422771    -0.05100
C1520       C  0.85273893  0.65770321  0.98902716    -0.05000
C1521       C  0.76267064  0.64449207  0.97660274    -0.30300
N1522       N  0.74181094  0.63427582  0.00756613     0.16200
C1523       C  0.76831310  0.63899081  0.53650593    -0.30300
H1524       H  0.75812756  0.63492152  0.56495658     0.18100
C1525       C  0.88685475  0.77306352  0.98610590    -0.29300
N1526       N  0.90604240  0.79383031  0.51799127     0.14900
C1527       C  0.89207572  0.76810214  0.54810110    -0.29300
C1528       C  0.87510711  0.64473103  0.97669542    -0.29600
N1529       N  0.88864108  0.63607212  0.00769428     0.15400
H1530       H  0.88273997  0.64389662  0.94770600     0.18000
C1531       C  0.87882559  0.63761346  0.54542807    -0.29600
H1532       H  0.88613226  0.63657899  0.57504337     0.18000
H1533       H  0.89837211  0.78110058  0.57784661     0.18000
H1534       H  0.75217210  0.64097505  0.94716149     0.18100
H1535       H  0.89340135  0.78585718  0.95802364     0.18000
C1536       C  0.83911635  0.68249979  0.80043607     0.31900
C1537       C  0.84085458  0.68151918  0.72118151     0.31900
C1538       C  0.80097074  0.66031452  0.77705249    -0.04300
C1539       C  0.86366988  0.72877519  0.78364585    -0.05100
C1540       C  0.85541567  0.65887598  0.78182486    -0.04900
C1541       C  0.80179827  0.65980797  0.73713048    -0.04300
C1542       C  0.86454930  0.72822789  0.74347826    -0.05100
C1543       C  0.85631798  0.65839225  0.74170478    -0.05000
C1544       C  0.76547725  0.64183579  0.72205423    -0.30300
N1545       N  0.74309449  0.63168037  0.75170399     0.16200
C1546       C  0.76426180  0.64271932  0.78527717    -0.30300
H1547       H  0.75383288  0.63907413  0.81357167     0.18100
C1548       C  0.88798218  0.77228940  0.73453622    -0.29300
N1549       N  0.90051854  0.79900912  0.76755558     0.14900
C1550       C  0.88662706  0.77324082  0.79767251    -0.29300
C1551       C  0.87826873  0.64401166  0.73187689    -0.29600
N1552       N  0.88971134  0.63498756  0.76430118     0.15400
H1553       H  0.88689405  0.64220403  0.70360951     0.18000
C1554       C  0.87678079  0.64468989  0.79489973    -0.29600
H1555       H  0.88399540  0.64343702  0.82450023     0.18000
H1556       H  0.89295341  0.78626648  0.82739709     0.18000
H1557       H  0.75621800  0.63739209  0.69200672     0.18100
H1558       H  0.89549535  0.78439308  0.70630601     0.18000
C1559       C  0.63400346  0.56542915  0.50874224     0.78400
Tb1560     Tb  0.96560206  0.50865146  0.53701318     1.80700
O1561       O  0.62297036  0.56753195  0.54106875    -0.49700
O1562       O  0.57210308  0.97505192  0.56598947    -0.57100
C1563       C  0.56063493  0.60091467  0.54438244     0.94200
O1564       O  0.95276557  0.55987852  0.55819077    -0.56600
Tb1565     Tb  0.55790387  0.51046168  0.52661699     1.78100
O1566       O  0.90096973  0.96383736  0.53062322    -0.57100
O1567       O  0.49565796  0.94053930  0.50251714    -0.75900
O1568       O  0.57441285  0.57976104  0.55298374    -0.75300
O1569       O  0.53277569  0.53978000  0.97622036    -0.60500
C1570       C  0.96769322  0.92914482  0.52413951     0.93800
O1571       O  0.00479014  0.52913834  0.59198187    -0.72500
C1572       C  0.88995302  0.45271908  0.55558750     0.77200
C1573       C  0.57602380  0.95381219  0.53976589     0.78200
O1574       O  0.60716860  0.53786592  0.48429662    -0.57700
O1575       O  0.56654566  0.95766331  0.50654807    -0.49700
O1576       O  0.96850117  0.49309366  0.97690850    -0.75700
O1577       O  0.53258570  0.49269521  0.58587890    -0.59700
C1578       C  0.52174945  0.51191589  0.60609682     0.92000
C1579       C  0.49974942  0.51722361  0.95910828     0.93200
C1580       C  0.94238733  0.57756245  0.01716500     0.77600
O1581       O  0.91735344  0.47623784  0.58069918    -0.49100
O1582       O  0.94703499  0.05384860  0.99443975    -0.50200
O1583       O  0.95747368  0.94849420  0.54560718    -0.63100
O1584       O  0.52624196  0.58178573  0.53195135    -0.64200
C1585       C  0.63138868  0.57039779  0.75866498     0.78400
Tb1586     Tb  0.96849160  0.52268154  0.78557692     1.80700
O1587       O  0.62193510  0.56613812  0.79270839    -0.49700
O1588       O  0.57684747  0.98893521  0.82267605    -0.57100
C1589       C  0.55525980  0.60571525  0.79643808     0.94200
O1590       O  0.95391491  0.57202593  0.80676225    -0.56600
Tb1591     Tb  0.55619443  0.51628047  0.77840471     1.78100
O1592       O  0.90150724  0.96938745  0.76993995    -0.57100
O1593       O  0.49707490  0.95156932  0.75016046    -0.75900
O1594       O  0.56656135  0.58659807  0.77628448    -0.75300
O1595       O  0.51735574  0.49698371  0.72352921    -0.60500
C1596       C  0.96503175  0.93460455  0.77596649     0.93800
O1597       O  0.98891845  0.50560029  0.83969986    -0.72500
C1598       C  0.89134064  0.46473580  0.79790731     0.77200
C1599       C  0.57794304  0.96321588  0.79881526     0.78200
O1600       O  0.60353647  0.54929442  0.73377332    -0.57700
O1601       O  0.56541144  0.96183368  0.76534798    -0.49700
O1602       O  0.00031480  0.54507355  0.73011346    -0.75700
O1603       O  0.55220719  0.53860949  0.83911792    -0.59700
C1604       C  0.52218662  0.52105613  0.85640838     0.92000
C1605       C  0.50791783  0.52071291  0.71012112     0.93200
C1606       C  0.94471724  0.57746797  0.77406287     0.77600
O1607       O  0.91668198  0.48925953  0.82460542    -0.49100
O1608       O  0.94922689  0.06061404  0.74951980    -0.50200
O1609       O  0.95301681  0.95567001  0.76176858    -0.63100
O1610       O  0.52373966  0.58434944  0.81190764    -0.64200
C1611       C  0.68450468  0.85271394  0.52176138     0.31900
C1612       C  0.68166250  0.85386610  0.60092813     0.31900
C1613       C  0.66667563  0.87450753  0.53943398    -0.04300
C1614       C  0.66190513  0.80661852  0.53886410    -0.05100
C1615       C  0.72291112  0.87693049  0.54570456    -0.04900
C1616       C  0.66478711  0.87493645  0.57936901    -0.04300
C1617       C  0.65983285  0.80716848  0.57883132    -0.05100
C1618       C  0.72145917  0.87765325  0.58570397    -0.05000
C1619       C  0.64227939  0.88899681  0.58771694    -0.30300
N1620       N  0.63191401  0.89810702  0.55451279     0.16200
C1621       C  0.64636627  0.88923802  0.52489915    -0.30300
H1622       H  0.64127577  0.89173852  0.49492711     0.18100
C1623       C  0.63714288  0.76305011  0.58780244    -0.29300
N1624       N  0.62695641  0.73643054  0.55504004     0.14900
C1625       C  0.64194867  0.76225788  0.52512217    -0.29300
C1626       C  0.75783316  0.89644250  0.60150247    -0.29600
N1627       N  0.78082870  0.90659659  0.57236777     0.15400
H1628       H  0.76660149  0.90095380  0.63171730     0.18000
C1629       C  0.75993615  0.89438716  0.53845464    -0.29600
H1630       H  0.77084323  0.89653554  0.51065402     0.18000
H1631       H  0.63862777  0.74940720  0.49572384     0.18000
H1632       H  0.63275720  0.89080437  0.61544130     0.18100
H1633       H  0.62839846  0.75090908  0.61584985     0.18000
C1634       C  0.68004539  0.85657434  0.77171412     0.31900
C1635       C  0.68304806  0.85979030  0.85122523     0.31900
C1636       C  0.66430591  0.87988889  0.79184948    -0.04300
C1637       C  0.65751463  0.81098047  0.78957696    -0.05100
C1638       C  0.71952939  0.88011061  0.79253305    -0.04900
C1639       C  0.66610723  0.88177811  0.83201899    -0.04300
C1640       C  0.65946553  0.81253099  0.82983555    -0.05100
C1641       C  0.72142969  0.88164078  0.83272796    -0.05000
C1642       C  0.64683763  0.89896240  0.84409054    -0.30300
N1643       N  0.63318957  0.90681026  0.81253228     0.14400
C1644       C  0.64295670  0.89467483  0.78071791    -0.30300
H1645       H  0.63357119  0.89484208  0.75171083     0.18100
C1646       C  0.63855830  0.76868398  0.83963788    -0.29300
N1647       N  0.62341715  0.74128510  0.80688963     0.14900
C1648       C  0.63443097  0.76637313  0.77627815    -0.29300
C1649       C  0.75822113  0.89712279  0.84438077    -0.29600
N1650       N  0.77809643  0.90593917  0.81276847     0.15400
H1651       H  0.76945569  0.90006205  0.87332949     0.18000
C1652       C  0.75488751  0.89554437  0.78106765    -0.29600
H1653       H  0.76282300  0.89749281  0.75180149     0.18000
H1654       H  0.62592462  0.75289353  0.74665500     0.18000
H1655       H  0.64186874  0.90374370  0.87340593     0.18100
H1656       H  0.63459497  0.75731553  0.86826812     0.18000
C1657       C  0.71479218  0.89984613  0.95901553    -0.11400
C1658       C  0.68340685  0.86610056  0.97782842     0.10700
C1659       C  0.65010416  0.83430801  0.95448433    -0.11400
C1660       C  0.65006841  0.83236724  0.91418119    -0.11400
C1661       C  0.68328249  0.86225709  0.89553653     0.10700
C1662       C  0.71475094  0.89794516  0.91872031    -0.11400
H1663       H  0.73930203  0.92856997  0.97526634     0.14700
H1664       H  0.62381084  0.81086553  0.96733585     0.14700
H1665       H  0.62368936  0.80761014  0.89760545     0.14700
H1666       H  0.73918776  0.92528706  0.90586493     0.14700
C1667       C  0.68408178  0.89051527  0.70735263    -0.11400
C1668       C  0.68051465  0.85603162  0.72743753     0.10700
C1669       C  0.68306291  0.82475968  0.70602340    -0.11400
C1670       C  0.68382713  0.82440311  0.66579712    -0.11400
C1671       C  0.68167394  0.85499795  0.64523921     0.10700
C1672       C  0.68437971  0.88984621  0.66710746    -0.11400
H1673       H  0.68791036  0.91908190  0.72265167     0.14700
H1674       H  0.68527541  0.80094773  0.72039976     0.14700
H1675       H  0.68674795  0.80042112  0.65089970     0.14700
H1676       H  0.68796524  0.91761685  0.65335511     0.14700
C1677       C  0.57933369  0.65380969  0.80169751    -0.11400
C1678       C  0.59974390  0.69426557  0.80471590    -0.12900
C1679       C  0.85003013  0.94045855  0.80954812    -0.11400
C1680       C  0.81664955  0.92329032  0.81228358    -0.12900
C1681       C  0.61176483  0.92406594  0.81186690    -0.11400
C1682       C  0.59462391  0.94031406  0.80796702    -0.12900
C1683       C  0.58488105  0.64900713  0.54927071    -0.11400
C1684       C  0.60444554  0.68943885  0.55234511    -0.12900
C1685       C  0.81996413  0.92588855  0.57561089    -0.11400
C1686       C  0.85360445  0.94341770  0.57389307    -0.12900
C1687       C  0.59243597  0.93018129  0.54669763    -0.11400
C1688       C  0.60975367  0.91422402  0.55098235    -0.12900
C1689       C  0.52607135  0.52682466  0.89776961    -0.14500
C1690       C  0.49578937  0.51181948  0.91770085    -0.29700
H1691       H  0.53445589  0.00401859  0.90771775     0.14500
H1692       H  0.46748611  0.49458254  0.90347790     0.15100
C1693       C  0.50938436  0.52631603  0.66950786    -0.14500
C1694       C  0.52280088  0.50915339  0.64708702    -0.29700
H1695       H  0.49872569  0.54412989  0.65784879     0.14500
H1696       H  0.02777163  0.48633622  0.65821548     0.15100
C1697       C  0.92841414  0.60154044  0.76876544    -0.11400
C1698       C  0.91146135  0.61816496  0.76613237    -0.12900
C1699       C  0.92248967  0.84600807  0.76994804    -0.11400
C1700       C  0.94121679  0.88642841  0.77213988    -0.12900
C1701       C  0.70411801  0.61259602  0.74882588    -0.11400
C1702       C  0.67048498  0.59473109  0.75003099    -0.12900
C1703       C  0.92723688  0.60251475  0.00981674    -0.11400
C1704       C  0.91062717  0.61955554  0.00737320    -0.12900
C1705       C  0.94598475  0.88113328  0.52216980    -0.11400
C1706       C  0.92789524  0.84079956  0.52040570    -0.12900
C1707       C  0.67369713  0.58970962  0.50184748    -0.11400
C1708       C  0.70748680  0.60788725  0.50081002    -0.12900
C1709       C  0.82901843  0.64454766  0.86366594    -0.11400
C1710       C  0.83606244  0.68130404  0.84452316     0.10700
C1711       C  0.83593063  0.71405391  0.86674811    -0.11400
C1712       C  0.83538955  0.71395263  0.90709223    -0.11400
C1713       C  0.83467224  0.68090590  0.92670733     0.10700
C1714       C  0.82823743  0.64429647  0.90385459    -0.11400
H1715       H  0.82382291  0.61553953  0.84760849     0.14700
H1716       H  0.83590002  0.73970273  0.85305629     0.14700
H1717       H  0.83532925  0.73975565  0.92283369     0.14700
H1718       H  0.82247321  0.61508979  0.91694440     0.14700
C1719       C  0.83978101  0.71028115  0.61598152    -0.11400
C1720       C  0.84047310  0.67741795  0.59482041     0.10700
C1721       C  0.83438016  0.64170152  0.61494933    -0.11400
C1722       C  0.83412699  0.64281132  0.65516095    -0.11400
C1723       C  0.83976286  0.67957903  0.67686932     0.10700
C1724       C  0.83940915  0.71132498  0.65624152    -0.11400
H1725       H  0.83909309  0.73507271  0.60144742     0.14700
H1726       H  0.82909080  0.61225768  0.59970432     0.14700
H1727       H  0.82885327  0.61428205  0.66910210     0.14700
H1728       H  0.83828027  0.73676454  0.67107874     0.14700
loop_ 
_geom_bond_atom_site_label_1 
_geom_bond_atom_site_label_2 
_geom_bond_distance 
_geom_bond_site_symmetry_2 
_ccdc_geom_bond_type 
C1            C3   1.538       .  S
C1            C5   1.541       .  S
C1            C4   1.546       .  S
C1          C208   1.552       .  S
C2            C6   1.538       .  S
C2            C8   1.552       .  S
C2            C7   1.547       .  S
C2          C201   1.551       .  S
C3           C11   1.380       .  A
C3          C222   1.404   1_554  A
C4           C15   1.381       .  A
C4          C223   1.409   1_554  A
C5           C19   1.378       .  A
C5          C224   1.399   1_554  A
C6            C9   1.382       .  A
C6          C219   1.397       .  A
C7           C13   1.381       .  A
C7          C220   1.403       .  A
C8           C16   1.388       .  A
C8          C221   1.409       .  A
C9           N10   1.358       .  A
C9           H22   1.082       .  S
N10         C227   1.355       .  A
N10         C412   1.404       .  S
C11         N226   1.355   1_554  A
C11          H12   1.083       .  S
C13         N230   1.355       .  A
C13          H23   1.082       .  S
N14          C15   1.351       .  A
N14         C229   1.353   1_554  A
N14         C194   1.401       .  S
C15          H21   1.081       .  S
C16          N17   1.354       .  A
C16          H18   1.082       .  S
N17         C235   1.351       .  A
N17         C192   1.408       .  S
C19         N233   1.352       .  A
C19          H20   1.082       .  S
C24          C26   1.533       .  S
C24          C28   1.550       .  S
C24          C27   1.546       .  S
C24         C198   1.551       .  S
C25          C29   1.536       .  S
C25          C31   1.552       .  S
C25          C30   1.548       .  S
C25         C211   1.550       .  S
C26          C34   1.376       .  A
C26          C29   1.395       .  A
C27          C38   1.382       .  A
C27          C30   1.403       .  A
C28          C42   1.384       .  A
C28          C31   1.409       .  A
C29          C32   1.381       .  A
C30          C36   1.382       .  A
C31          C39   1.388       .  A
C32          N33   1.357       .  A
C32          H45   1.082       .  S
N33          C34   1.355       .  A
N33         C189   1.404       .  S
C34          H35   1.083       .  S
C36          N37   1.356       .  A
C36          H46   1.082       .  S
N37          C38   1.355       .  A
N37         C187   1.406       .  S
C38          H44   1.082       .  S
C39          N40   1.355       .  A
C39          H41   1.082       .  S
N40          C42   1.353       .  A
N40         C186   1.410       .  S
C42          H43   1.081       .  S
C47          O62   1.264   1_554  A
C47          O49   1.257       .  A
C47         C195   1.438   1_554  S
Tb48         O59   2.296       .  S
Tb48         O52   2.359       .  S
Tb48         O69   2.371   1_545  S
Tb48        O718   2.358   1_554  S
Tb48        O503   2.376   1_545  S
Tb48        O486   2.343   1_545  S
Tb48        O280   2.286   1_544  S
Tb48        O936   2.362       .  S
O49         Tb53   2.342       .  S
O50          C61   1.262       .  A
O50        Tb485   2.369       .  S
C51          O56   1.270       .  A
C51          O72   1.277       .  A
C51         C171   1.439       .  S
O52         C284   1.262       .  A
Tb53         O62   2.372   1_554  S
Tb53         O56   2.336       .  S
Tb53         O65   2.300       .  S
Tb53        O482   2.345   1_545  S
Tb53        O273   2.322   1_554  S
Tb53        O495   2.355   1_545  S
Tb53        O487   2.349   1_445  S
O54         C492   1.258       .  A
O54        Tb480   2.345       .  S
O55         C922   1.271       .  A
O55        Tb485   2.341   1_655  S
O57          C67   1.271       .  A
O57        Tb269   2.331       .  S
C58          O71   1.272       .  A
C58         O919   1.268       .  A
C58         C193   1.434       .  S
O59         C930   1.257       .  A
C60          O69   1.264       .  A
C60         O486   1.259       .  A
C60         C606   1.439       .  S
C61          O63   1.260       .  A
C61         C175   1.442       .  S
O63        Tb485   2.355       .  S
O64         C931   1.261   1_565  A
O64        Tb264   2.295   1_565  S
O65          C66   1.264       .  A
C66         O923   1.270       .  A
C66         C182   1.433       .  S
C67         O928   1.262   1_445  A
C67         C178   1.444   1_455  S
C68         O268   1.262       .  A
C68         O502   1.263       .  A
C68         C191   1.445       .  S
O70         C500   1.264       .  A
O70        Tb696   2.372       .  S
O71        Tb480   2.366       .  S
O72        Tb912   2.373   1_455  S
C73          O88   1.261       .  A
C73          O75   1.258       .  A
C73         C190   1.438       .  S
Tb74         O90   2.321       .  S
Tb74         O85   2.322       .  S
Tb74         O78   2.357       .  S
Tb74         O95   2.362   1_545  S
Tb74        O528   2.374       .  S
Tb74        O529   2.349   1_545  S
Tb74        O512   2.352   1_545  S
Tb74        O962   2.344       .  S
O75         Tb79   2.350       .  S
O76          C87   1.263       .  A
O76        Tb511   2.374       .  S
C77          O82   1.271       .  A
C77          O98   1.273       .  A
C77         C165   1.440       .  S
O78          C94   1.260       .  A
Tb79         O83   2.324       .  S
Tb79         O88   2.365       .  S
Tb79         O82   2.347       .  S
Tb79         O91   2.309       .  S
Tb79        O508   2.361   1_545  S
Tb79        O521   2.358   1_545  S
Tb79        O513   2.338   1_445  S
O80         C518   1.260       .  A
O80        Tb506   2.355       .  S
O81         C948   1.273   1_455  A
O81        Tb511   2.364       .  S
O83          C93   1.270       .  A
C84          O97   1.272       .  A
C84         O945   1.274       .  A
C84         C188   1.442       .  S
O85         C956   1.271       .  A
C86          O95   1.262       .  A
C86         O512   1.260       .  A
C86         C599   1.438       .  S
C87          O89   1.258       .  A
C87         C170   1.441       .  S
O89        Tb511   2.349       .  S
O90         C957   1.272   1_545  A
O91          C92   1.265       .  A
C92         O949   1.270       .  A
C92         C177   1.440       .  S
C93         O954   1.261   1_445  A
C93         C181   1.440   1_455  S
C94         O528   1.263       .  A
C94         C185   1.446       .  S
O96         C526   1.262       .  A
O96        Tb506   2.373       .  S
O97        Tb506   2.347       .  S
O98        Tb938   2.363   1_455  S
C99         C101   1.538       .  S
C99         C103   1.546       .  S
C99         C102   1.544       .  S
C99         C362   1.551   1_554  S
C100        C104   1.549       .  S
C100        C106   1.536       .  S
C100        C105   1.546       .  S
C100        C159   1.549       .  S
C101        C109   1.378       .  A
C101        C104   1.402       .  A
C102        C113   1.382       .  A
C102        C105   1.403       .  A
C103        C117   1.380       .  A
C103        C106   1.402       .  A
C104        C107   1.386       .  A
C105        C111   1.380       .  A
C106        C114   1.381       .  A
C107        N108   1.357       .  A
C107        H120   1.081       .  S
N108        C109   1.355       .  A
N108        C176   1.407       .  S
C109        H110   1.083       .  S
C111        N112   1.354       .  A
C111        H121   1.082       .  S
N112        C113   1.356       .  A
N112        C172   1.404       .  S
C113        H119   1.082   1_554  S
C114        N115   1.354       .  A
C114        H116   1.082       .  S
N115        C117   1.352       .  A
N115        C173   1.402       .  S
C117        H118   1.081       .  S
C122        C124   1.548       .  S
C122        C126   1.537       .  S
C122        C125   1.544       .  S
C122        C156   1.551       .  S
C123        C127   1.538       .  S
C123        C129   1.548       .  S
C123        C128   1.547       .  S
C123        C149   1.547       .  S
C124        C132   1.383       .  A
C124        C127   1.404       .  A
C125        C136   1.381       .  A
C125        C128   1.402       .  A
C126        C140   1.376       .  A
C126        C129   1.401       .  A
C127        C130   1.382       .  A
C128        C134   1.381       .  A
C129        C137   1.386       .  A
C130        N131   1.353       .  A
C130        H143   1.083       .  S
N131        C132   1.353       .  A
N131        C169   1.406       .  S
C132        H133   1.081       .  S
C134        N135   1.355       .  A
C134        H144   1.082       .  S
N135        C136   1.356       .  A
N135        C166   1.405       .  S
C136        H142   1.082       .  S
C137        N138   1.357       .  A
C137        H139   1.081       .  S
N138        C140   1.354       .  A
N138        C168   1.406       .  S
C140        H141   1.083       .  S
C145        C146   1.411       .  A
C145        C150   1.406       .  A
C145        H151   1.079       .  S
C146        C315   1.549       .  S
C146        C147   1.410       .  A
C147        C148   1.408       .  A
C147        H152   1.082       .  S
C148        C149   1.412       .  A
C148        H153   1.081       .  S
C149        C150   1.409       .  A
C150        H154   1.080       .  S
C155        C156   1.411       .  A
C155        C160   1.407       .  A
C155        H161   1.078       .  S
C156        C157   1.410       .  A
C157        C158   1.409       .  A
C157        H162   1.082       .  S
C158        C159   1.412       .  A
C158        H163   1.081       .  S
C159        C160   1.409       .  A
C160        H164   1.080       .  S
C165        C166   1.209       .  T
C167        C518   1.440       .  S
C167        C168   1.209       .  T
C169        C170   1.209       .  T
C171        C172   1.208       .  T
C173        C174   1.206       .  T
C174        C492   1.436       .  S
C175        C176   1.210       .  T
C177        C178   1.330   1_455  D
C177        H611   1.088       .  S
C178        H180   1.088       .  S
H179        C609   1.088       .  S
C181        C182   1.329   1_655  D
C181        H183   1.088       .  S
C182       H1048   1.087       .  S
H184       C1046   1.088       .  S
C185        C186   1.213       .  T
C187        C188   1.210       .  T
C189        C190   1.208       .  T
C191        C192   1.212       .  T
C193        C194   1.205       .  T
C195        C196   1.208       .  T
C196        N226   1.405       .  S
C197        C198   1.411       .  A
C197        C202   1.408       .  A
C197        H203   1.079       .  S
C198        C199   1.411       .  A
C199        C200   1.409       .  A
C199        H204   1.082       .  S
C200        C201   1.411       .  A
C200        H205   1.081       .  S
C201        C202   1.410       .  A
C202        H206   1.080       .  S
C207        C208   1.411       .  A
C207        C212   1.409       .  A
C207        H213   1.079       .  S
C208        C209   1.411       .  A
C209        C210   1.407       .  A
C209        H214   1.082       .  S
C210        C211   1.410       .  A
C210        H215   1.080       .  S
C211        C212   1.411       .  A
C212        H216   1.081       .  S
C217        C219   1.532       .  S
C217        C221   1.548       .  S
C217        C220   1.543       .  S
C217        C424   1.551       .  S
C218        C222   1.535       .  S
C218        C224   1.547       .  S
C218        C223   1.548       .  S
C218        C417   1.549       .  S
C219        C227   1.374       .  A
C220        C231   1.380       .  A
C221        C235   1.384       .  A
C222        C225   1.381       .  A
C223        C229   1.382       .  A
C224        C232   1.385       .  A
C225        N226   1.353       .  A
C225        H238   1.082       .  S
C227        H228   1.083       .  S
C229        H239   1.081       .  S
N230        C231   1.355       .  A
N230        C410   1.405       .  S
C231        H237   1.082       .  S
C232        N233   1.357   1_556  A
C232        H234   1.082       .  S
N233        C408   1.405       .  S
C235        H236   1.081       .  S
C240        C242   1.531       .  S
C240        C244   1.546       .  S
C240        C243   1.545       .  S
C240        C414   1.550       .  S
C241        C245   1.536       .  S
C241        C247   1.553       .  S
C241        C246   1.545       .  S
C241        C427   1.550       .  S
C242        C250   1.374       .  A
C242        C245   1.395       .  A
C243        C254   1.379       .  A
C243        C246   1.404       .  A
C244        C258   1.384       .  A
C244        C247   1.412       .  A
C245        C248   1.381       .  A
C246        C252   1.381       .  A
C247        C255   1.389       .  A
C248        N249   1.357       .  A
C248        H261   1.082       .  S
N249        C250   1.355       .  A
N249        C405   1.403       .  S
C250        H251   1.083       .  S
C252        N253   1.355       .  A
C252        H262   1.082       .  S
N253        C254   1.354       .  A
N253        C403   1.404       .  S
C254        H260   1.082       .  S
C255        N256   1.352       .  A
C255        H257   1.082       .  S
N256        C258   1.350       .  A
N256        C402   1.407       .  S
C258        H259   1.082       .  S
C263        O278   1.262       .  A
C263        O265   1.260       .  A
C263        C411   1.438       .  S
Tb264       O502   2.364       .  S
Tb264       O719   2.370   1_545  S
Tb264       O702   2.347   1_545  S
Tb264       O275   2.310       .  S
Tb264       O268   2.362       .  S
Tb264      O1152   2.355       .  S
Tb264       O285   2.362   1_545  S
O265       Tb269   2.348       .  S
O266        C277   1.261       .  A
O266       Tb701   2.358       .  S
C267        O272   1.271       .  A
C267        O288   1.274       .  A
C267        C387   1.433       .  S
Tb269       O698   2.359   1_545  S
Tb269       O278   2.364       .  S
Tb269       O272   2.341       .  S
Tb269       O711   2.359   1_545  S
Tb269       O281   2.315   1_545  S
Tb269       O703   2.339   1_445  S
O270        C708   1.259       .  A
O270       Tb696   2.349       .  S
O271       C1138   1.271   1_455  A
O271       Tb701   2.339       .  S
O273        C283   1.265   1_455  A
C274       O1135   1.271       .  A
C274        O287   1.275       .  A
C274        C409   1.439       .  S
O275       C1146   1.269       .  A
C276        O702   1.260       .  A
C276        O285   1.263       .  A
C276        C822   1.437       .  S
C277        O279   1.261       .  A
C277        C391   1.438       .  S
O279       Tb701   2.356       .  S
O280       C1147   1.262   1_565  A
O281        C282   1.263   1_565  A
C282       O1139   1.267       .  A
C282        C398   1.440       .  S
C283       O1144   1.257   1_545  A
C283        C394   1.436       .  S
C284        O718   1.261   1_554  A
C284        C407   1.440       .  S
O286        C716   1.262   1_556  A
O286       Tb480   2.362   1_556  S
O287       Tb696   2.370       .  S
O288      Tb1128   2.362   1_455  S
C289        O304   1.263       .  A
C289        O291   1.259       .  A
C289        C406   1.436       .  S
Tb290       O744   2.362       .  S
Tb290       O745   2.373   1_545  S
Tb290       O728   2.341   1_545  S
Tb290       O306   2.283       .  S
Tb290       O301   2.307       .  S
Tb290       O294   2.362       .  S
Tb290      O1178   2.355       .  S
Tb290       O311   2.359   1_545  S
O291       Tb295   2.345       .  S
O292        C303   1.263       .  A
O292       Tb727   2.365       .  S
C293        O298   1.274       .  A
C293        O314   1.271       .  A
C293        C381   1.436       .  S
O294        C310   1.262       .  A
Tb295       O724   2.355   1_545  S
Tb295       O299   2.304       .  S
Tb295       O304   2.364       .  S
Tb295       O298   2.363       .  S
Tb295       O737   2.352   1_545  S
Tb295       O307   2.293       .  S
Tb295       O729   2.354   1_445  S
O296        C734   1.260       .  A
O296       Tb722   2.349       .  S
O297       C1164   1.272   1_455  A
O297       Tb727   2.359       .  S
O299        C309   1.266       .  A
C300       O1161   1.272       .  A
C300        O313   1.273       .  A
C300        C404   1.438       .  S
O301       C1172   1.269       .  A
C302        O728   1.259       .  A
C302        O311   1.263       .  A
C302        C815   1.432       .  S
C303        O305   1.260       .  A
C303        C386   1.440       .  S
O305       Tb727   2.352       .  S
O306       C1173   1.260       .  A
O307        C308   1.261       .  A
C308       O1165   1.271   1_455  A
C308        C393   1.438       .  S
C309       O1170   1.261   1_455  A
C309        C397   1.438       .  S
C310        O744   1.262       .  A
C310        C401   1.443       .  S
O312        C742   1.262       .  A
O312       Tb722   2.364       .  S
O313       Tb722   2.354       .  S
O314      Tb1154   2.345   1_455  S
C315        C317   1.535       .  S
C315        C319   1.543       .  S
C315        C318   1.542       .  S
C316        C320   1.547       .  S
C316        C322   1.540       .  S
C316        C321   1.544       .  S
C316        C375   1.549       .  S
C317        C325   1.377       .  A
C317        C320   1.401       .  A
C318        C329   1.379       .  A
C318        C321   1.403       .  A
C319        C333   1.378       .  A
C319        C322   1.403       .  A
C320        C323   1.384       .  A
C321        C327   1.378       .  A
C322        C330   1.383       .  A
C323        N324   1.356       .  A
C323        H336   1.082       .  S
N324        C325   1.353       .  A
N324        C392   1.404       .  S
C325        H326   1.083       .  S
C327        N328   1.353       .  A
C327        H337   1.082       .  S
N328        C329   1.354       .  A
N328        C388   1.400       .  S
C329        H335   1.082       .  S
C330        N331   1.356       .  A
C330        H332   1.082       .  S
N331        C333   1.352       .  A
N331        C389   1.404       .  S
C333        H334   1.082       .  S
C338        C340   1.543       .  S
C338        C342   1.535       .  S
C338        C341   1.544       .  S
C338        C372   1.548       .  S
C339        C343   1.539       .  S
C339        C345   1.549       .  S
C339        C344   1.546       .  S
C339        C365   1.548       .  S
C340        C348   1.380       .  A
C340        C343   1.401       .  A
C341        C352   1.378       .  A
C341        C344   1.403       .  A
C342        C356   1.376       .  A
C342        C345   1.402       .  A
C343        C346   1.381       .  A
C344        C350   1.381       .  A
C345        C353   1.386       .  A
C346        N347   1.356       .  A
C346        H359   1.082       .  S
N347        C348   1.354       .  A
N347        C385   1.405       .  S
C348        H349   1.082       .  S
C350        N351   1.355       .  A
C350        H360   1.082       .  S
N351        C352   1.354       .  A
N351        C382   1.403       .  S
C352        H358   1.082       .  S
C353        N354   1.355       .  A
C353        H355   1.081       .  S
N354        C356   1.353       .  A
N354        C384   1.404       .  S
C356        H357   1.083       .  S
C361        C362   1.410       .  A
C361        C366   1.405       .  A
C361        H367   1.078       .  S
C362        C363   1.410       .  A
C363        C364   1.409       .  A
C363        H368   1.082       .  S
C364        C365   1.411       .  A
C364        H369   1.082       .  S
C365        C366   1.409       .  A
C366        H370   1.079       .  S
C371        C372   1.410       .  A
C371        C376   1.407       .  A
C371        H377   1.080       .  S
C372        C373   1.411       .  A
C373        C374   1.408       .  A
C373        H378   1.081       .  S
C374        C375   1.411       .  A
C374        H379   1.081       .  S
C375        C376   1.409       .  A
C376        H380   1.080       .  S
C381        C382   1.207       .  T
C383        C734   1.437       .  S
C383        C384   1.208       .  T
C385        C386   1.209       .  T
C387        C388   1.205       .  T
C389        C390   1.208       .  T
C390        C708   1.438       .  S
C391        C392   1.208       .  T
C393        C394   1.331   1_455  D
C393        H827   1.088       .  S
C394        H396   1.087   1_545  S
H395        C825   1.088       .  S
C397        C398   1.331       .  D
C397        H399   1.088   1_455  S
C398       H1264   1.087   1_545  S
H400       C1262   1.088       .  S
C401        C402   1.210       .  T
C403        C404   1.207       .  T
C405        C406   1.207       .  T
C407        C408   1.209       .  T
C409        C410   1.209       .  T
C411        C412   1.208       .  T
C413        C414   1.411       .  A
C413        C418   1.406       .  A
C413        H419   1.081       .  S
C414        C415   1.410       .  A
C415        C416   1.409       .  A
C415        H420   1.081       .  S
C416        C417   1.412       .  A
C416        H421   1.079       .  S
C417        C418   1.409       .  A
C418        H422   1.082       .  S
C423        C424   1.411       .  A
C423        C428   1.411       .  A
C423        H429   1.082       .  S
C424        C425   1.410       .  A
C425        C426   1.404       .  A
C425        H430   1.080       .  S
C426        C427   1.409       .  A
C426        H431   1.080       .  S
C427        C428   1.412       .  A
C428        H432   1.082       .  S
C433        C435   1.533       .  S
C433        C437   1.542       .  S
C433        C436   1.546       .  S
C433        C640   1.552       .  S
C434        C438   1.539       .  S
C434        C440   1.553       .  S
C434        C439   1.545       .  S
C434        C633   1.549       .  S
C435        C443   1.376       .  A
C435        C654   1.402   1_554  A
C436        C447   1.380       .  A
C436        C655   1.408   1_554  A
C437        C451   1.379       .  A
C437        C656   1.400   1_554  A
C438        C651   1.395       .  A
C438        C441   1.383       .  A
C439        C652   1.404       .  A
C439        C445   1.381       .  A
C440        C653   1.410       .  A
C440        C448   1.390       .  A
C441        N442   1.358       .  A
C441        H454   1.082       .  S
N442        C659   1.355       .  A
N442        C844   1.406       .  S
C443        N658   1.354       .  A
C443        H444   1.083       .  S
C445        N662   1.356       .  A
C445        H455   1.082       .  S
N446        C661   1.354   1_554  A
N446        C447   1.353       .  A
N446        C626   1.403       .  S
C447        H453   1.082       .  S
C448        N449   1.352       .  A
C448        H450   1.082       .  S
N449        C667   1.351       .  A
N449        C624   1.409       .  S
C451        N665   1.352       .  A
C451        H452   1.082       .  S
C456        C458   1.532       .  S
C456        C460   1.550       .  S
C456        C459   1.541       .  S
C456        C630   1.550       .  S
C457        C461   1.533       .  S
C457        C463   1.552       .  S
C457        C462   1.547       .  S
C457        C643   1.550       .  S
C458        C466   1.374       .  A
C458        C461   1.395       .  A
C459        C470   1.379       .  A
C459        C462   1.402       .  A
C460        C474   1.384       .  A
C460        C463   1.413       .  A
C461        C464   1.378       .  A
C462        C468   1.381       .  A
C463        C471   1.388       .  A
C464        N465   1.355       .  A
C464        H477   1.082       .  S
N465        C466   1.355       .  A
N465        C621   1.400       .  S
C466        H467   1.083       .  S
C468        N469   1.356       .  A
C468        H478   1.082       .  S
N469        C470   1.353       .  A
N469        C619   1.404       .  S
C470        H476   1.082       .  S
C471        N472   1.353       .  A
C471        H473   1.082       .  S
N472        C474   1.351       .  A
N472        C618   1.409       .  S
C474        H475   1.081       .  S
C479        O494   1.262   1_554  A
C479        O481   1.260       .  A
C479        C627   1.442       .  S
Tb480       O712   2.298   1_554  S
Tb480       O491   2.297       .  S
Tb480       O484   2.345       .  S
Tb480      O1368   2.363       .  S
Tb480       O501   2.366       .  S
O481       Tb485   2.357       .  S
O482        C493   1.261       .  A
C483        O488   1.271       .  A
C483        O504   1.273       .  A
C483        C603   1.440       .  S
O484        C716   1.259       .  A
Tb485       O705   2.327   1_554  S
Tb485       O494   2.364   1_554  S
Tb485       O488   2.347       .  S
Tb485       O497   2.322       .  S
O487       C1354   1.271       .  A
O489        C499   1.272   1_455  A
O489       Tb701   2.330       .  S
C490       O1351   1.268       .  A
C490        O503   1.276       .  A
C490        C625   1.437       .  S
O491       C1362   1.260       .  A
C492        O501   1.262       .  A
C493        O495   1.264       .  A
C493        C607   1.436       .  S
O496       C1363   1.261       .  A
O496       Tb696   2.300       .  S
O497        C498   1.269       .  A
C498       O1355   1.260       .  A
C498        C614   1.438       .  S
C499       O1360   1.260       .  A
C499        C610   1.442       .  S
C500        O700   1.260       .  A
C500        C623   1.445       .  S
O504      Tb1344   2.366   1_455  S
C505        O520   1.263       .  A
C505        O507   1.259       .  A
C505        C622   1.431       .  S
Tb506       O522   2.333       .  S
Tb506       O517   2.325       .  S
Tb506       O510   2.361       .  S
Tb506      O1394   2.344       .  S
Tb506       O527   2.364       .  S
O507       Tb511   2.339       .  S
O508        C519   1.261       .  A
C509        O514   1.274       .  A
C509        O530   1.271       .  A
C509        C597   1.439       .  S
O510        C526   1.259       .  A
Tb511       O515   2.301       .  S
Tb511       O520   2.358       .  S
Tb511       O514   2.370       .  S
Tb511       O523   2.299       .  S
O513       C1380   1.268       .  A
O515        C525   1.261       .  A
C516       O1377   1.273       .  A
C516        O529   1.272       .  A
C516        C620   1.439       .  S
O517       C1388   1.270       .  A
C518        O527   1.261       .  A
C519        O521   1.261       .  A
C519        C602   1.441       .  S
O522       C1389   1.274       .  A
O523        C524   1.261       .  A
C524       O1381   1.272   1_455  A
C524        C609   1.439       .  S
C525       O1386   1.272   1_455  A
C525        C613   1.443       .  S
C526        C617   1.445       .  S
O530      Tb1370   2.345   1_455  S
C531        C533   1.533       .  S
C531        C535   1.543       .  S
C531        C534   1.546       .  S
C531        C794   1.544   1_554  S
C532        C536   1.550       .  S
C532        C538   1.538       .  S
C532        C537   1.544       .  S
C532        C591   1.544       .  S
C533        C541   1.374       .  A
C533        C536   1.404       .  A
C534        C545   1.382       .  A
C534        C537   1.400       .  A
C535        C549   1.380       .  A
C535        C538   1.399       .  A
C536        C539   1.387       .  A
C537        C543   1.381       .  A
C538        C546   1.381       .  A
C539        N540   1.357       .  A
C539        H552   1.081       .  S
N540        C541   1.350       .  A
N540        C608   1.403       .  S
C541        H542   1.083   1_554  S
C543        N544   1.354       .  A
C543        H553   1.082       .  S
N544        C545   1.355       .  A
N544        C604   1.405       .  S
C545        H551   1.082   1_554  S
C546        N547   1.355       .  A
C546        H548   1.083       .  S
N547        C549   1.355       .  A
N547        C605   1.405       .  S
C549        H550   1.082       .  S
C554        C556   1.541       .  S
C554        C558   1.535       .  S
C554        C557   1.546       .  S
C554        C588   1.547       .  S
C555        C559   1.543       .  S
C555        C561   1.549       .  S
C555        C560   1.548       .  S
C555        C581   1.551       .  S
C556        C564   1.378       .  A
C556        C559   1.400       .  A
C557        C568   1.382       .  A
C557        C560   1.404       .  A
C558        C572   1.377       .  A
C558        C561   1.403       .  A
C559        C562   1.385       .  A
C560        C566   1.381       .  A
C561        C569   1.386       .  A
C562        N563   1.358       .  A
C562        H575   1.083       .  S
N563        C564   1.352       .  A
N563        C601   1.406       .  S
C564        H565   1.082       .  S
C566        N567   1.355       .  A
C566        H576   1.082       .  S
N567        C568   1.355       .  A
N567        C598   1.405       .  S
C568        H574   1.082       .  S
C569        N570   1.355       .  A
C569        H571   1.082       .  S
N570        C572   1.353       .  A
N570        C600   1.405       .  S
C572        H573   1.083       .  S
C577        C578   1.412       .  A
C577        C582   1.408       .  A
C577        H583   1.080       .  S
C578        C747   1.553       .  S
C578        C579   1.411       .  A
C579        C580   1.411       .  A
C579        H584   1.081       .  S
C580        C581   1.411       .  A
C580        H585   1.081       .  S
C581        C582   1.411       .  A
C582        H586   1.081       .  S
C587        C588   1.412       .  A
C587        C592   1.406       .  A
C587        H593   1.080       .  S
C588        C589   1.409       .  A
C589        C590   1.406       .  A
C589        H594   1.081       .  S
C590        C591   1.411       .  A
C590        H595   1.082       .  S
C591        C592   1.408       .  A
C592        H596   1.080       .  S
C597        C598   1.209       .  T
C599        C600   1.208       .  T
C601        C602   1.210       .  T
C603        C604   1.209       .  T
C605        C606   1.209       .  T
C607        C608   1.207       .  T
C609        C610   1.330   1_455  D
C610        H612   1.088       .  S
C613        C614   1.331       .  D
C613        H615   1.088       .  S
C614       H1480   1.088   1_455  S
H616       C1478   1.088       .  S
C617        C618   1.212       .  T
C619        C620   1.208       .  T
C621        C622   1.204       .  T
C623        C624   1.212       .  T
C625        C626   1.207       .  T
C627        C628   1.210       .  T
C628        N658   1.406       .  S
C629        C630   1.409       .  A
C629        C634   1.406       .  A
C629        H635   1.079       .  S
C630        C631   1.412       .  A
C631        C632   1.409       .  A
C631        H636   1.082       .  S
C632        C633   1.410       .  A
C632        H637   1.082       .  S
C633        C634   1.411       .  A
C634        H638   1.079       .  S
C639        C640   1.410       .  A
C639        C644   1.410       .  A
C639        H645   1.080       .  S
C640        C641   1.412       .  A
C641        C642   1.407       .  A
C641        H646   1.081       .  S
C642        C643   1.410       .  A
C642        H647   1.080       .  S
C643        C644   1.411       .  A
C644        H648   1.082       .  S
C649        C651   1.533       .  S
C649        C653   1.548       .  S
C649        C652   1.543       .  S
C649        C856   1.550       .  S
C650        C654   1.541       .  S
C650        C656   1.546       .  S
C650        C655   1.551       .  S
C650        C849   1.553       .  S
C651        C659   1.376       .  A
C652        C663   1.378       .  A
C653        C667   1.386       .  A
C654        C657   1.384       .  A
C655        C661   1.382       .  A
C656        C664   1.384       .  A
C657        N658   1.358   1_556  A
C657        H670   1.082       .  S
C659        H660   1.083       .  S
C661        H671   1.081       .  S
N662        C663   1.354       .  A
N662        C842   1.403       .  S
C663        H669   1.082       .  S
C664        N665   1.354   1_556  A
C664        H666   1.082       .  S
N665        C840   1.403       .  S
C667        H668   1.081       .  S
C672        C674   1.534       .  S
C672        C676   1.546       .  S
C672        C675   1.548       .  S
C672        C846   1.552       .  S
C673        C677   1.536       .  S
C673        C679   1.552       .  S
C673        C678   1.546       .  S
C673        C859   1.549       .  S
C674        C682   1.375       .  A
C674        C677   1.397       .  A
C675        C686   1.382       .  A
C675        C678   1.405       .  A
C676        C690   1.382       .  A
C676        C679   1.405       .  A
C677        C680   1.381       .  A
C678        C684   1.381       .  A
C679        C687   1.387       .  A
C680        N681   1.357       .  A
C680        H693   1.082       .  S
N681        C682   1.355       .  A
N681        C837   1.403       .  S
C682        H683   1.083       .  S
C684        N685   1.355       .  A
C684        H694   1.082       .  S
N685        C686   1.355       .  A
N685        C835   1.405       .  S
C686        H692   1.081       .  S
C687        N688   1.355       .  A
C687        H689   1.082       .  S
N688        C690   1.353       .  A
N688        C834   1.408       .  S
C690        H691   1.082       .  S
C695        O710   1.262       .  A
C695        O697   1.260       .  A
C695        C843   1.441       .  S
Tb696       O707   2.309       .  S
Tb696       O700   2.357       .  S
Tb696      O1584   2.360       .  S
Tb696       O717   2.367       .  S
O697       Tb701   2.355       .  S
O698        C709   1.261       .  A
C699        O704   1.271       .  A
C699        O720   1.274       .  A
C699        C819   1.441       .  S
Tb701       O710   2.366       .  S
Tb701       O704   2.347       .  S
Tb701       O713   2.315       .  S
O703       C1570   1.269       .  A
O705        C715   1.273   1_455  A
C706       O1567   1.268       .  A
C706        O719   1.275       .  A
C706        C841   1.436       .  S
O707       C1578   1.267       .  A
C708        O717   1.262       .  A
C709        O711   1.262       .  A
C709        C823   1.441       .  S
O712       C1579   1.261       .  A
O713        C714   1.263       .  A
C714       O1571   1.268       .  A
C714        C830   1.441       .  S
C715       O1576   1.261       .  A
C715        C826   1.441       .  S
C716        C839   1.436       .  S
O720      Tb1560   2.368   1_455  S
C721        O736   1.263       .  A
C721        O723   1.259       .  A
C721        C838   1.436       .  S
Tb722       O738   2.319       .  S
Tb722       O733   2.335       .  S
Tb722       O726   2.362       .  S
Tb722      O1610   2.344       .  S
Tb722       O743   2.362       .  S
O723       Tb727   2.344       .  S
O724        C735   1.262       .  A
C725        O730   1.273       .  A
C725        O746   1.272       .  A
C725        C813   1.432       .  S
O726        C742   1.262       .  A
Tb727       O731   2.304       .  S
Tb727       O736   2.365       .  S
Tb727       O730   2.357       .  S
Tb727       O739   2.294       .  S
O729       C1596   1.270       .  A
O731        C741   1.266       .  A
C732       O1593   1.269       .  A
C732        O745   1.276       .  A
C732        C836   1.440       .  S
O733       C1604   1.271       .  A
C734        O743   1.262       .  A
C735        O737   1.261       .  A
C735        C818   1.436       .  S
O738       C1605   1.264       .  A
O739        C740   1.261       .  A
C740       O1597   1.271   1_455  A
C740        C825   1.439       .  S
C741       O1602   1.262       .  A
C741        C829   1.437       .  S
C742        C833   1.444       .  S
O746      Tb1586   2.346   1_455  S
C747        C749   1.536       .  S
C747        C751   1.543       .  S
C747        C750   1.546       .  S
C748        C752   1.547       .  S
C748        C754   1.540       .  S
C748        C753   1.550       .  S
C748        C807   1.554       .  S
C749        C757   1.378       .  A
C749        C752   1.400       .  A
C750        C761   1.381       .  A
C750        C753   1.406       .  A
C751        C765   1.379       .  A
C751        C754   1.404       .  A
C752        C755   1.384       .  A
C753        C759   1.382       .  A
C754        C762   1.382       .  A
C755        N756   1.356       .  A
C755        H768   1.082       .  S
N756        C757   1.355       .  A
N756        C824   1.406       .  S
C757        H758   1.083       .  S
C759        N760   1.355       .  A
C759        H769   1.082       .  S
N760        C761   1.355       .  A
N760        C820   1.406       .  S
C761        H767   1.082       .  S
C762        N763   1.355       .  A
C762        H764   1.083       .  S
N763        C765   1.353       .  A
N763        C821   1.404       .  S
C765        H766   1.082       .  S
C770        C772   1.543       .  S
C770        C774   1.538       .  S
C770        C773   1.545       .  S
C770        C804   1.553       .  S
C771        C775   1.536       .  S
C771        C777   1.544       .  S
C771        C776   1.541       .  S
C771        C797   1.546       .  S
C772        C780   1.379       .  A
C772        C775   1.401       .  A
C773        C784   1.380       .  A
C773        C776   1.403       .  A
C774        C788   1.377       .  A
C774        C777   1.406       .  A
C775        C778   1.378       .  A
C776        C782   1.378       .  A
C777        C785   1.383       .  A
C778        N779   1.355       .  A
C778        H791   1.082       .  S
N779        C780   1.355       .  A
N779        C817   1.402       .  S
C780        H781   1.082       .  S
C782        N783   1.352       .  A
C782        H792   1.082       .  S
N783        C784   1.354       .  A
N783        C814   1.400       .  S
C784        H790   1.082       .  S
C785        N786   1.352       .  A
C785        H787   1.081       .  S
N786        C788   1.353       .  A
N786        C816   1.401       .  S
C788        H789   1.083       .  S
C793        C794   1.409       .  A
C793        C798   1.406       .  A
C793        H799   1.080       .  S
C794        C795   1.410       .  A
C795        C796   1.405       .  A
C795        H800   1.081       .  S
C796        C797   1.409       .  A
C796        H801   1.082       .  S
C797        C798   1.410       .  A
C798        H802   1.079       .  S
C803        C804   1.411       .  A
C803        C808   1.410       .  A
C803        H809   1.081       .  S
C804        C805   1.411       .  A
C805        C806   1.409       .  A
C805        H810   1.080       .  S
C806        C807   1.411       .  A
C806        H811   1.080       .  S
C807        C808   1.412       .  A
C808        H812   1.080       .  S
C813        C814   1.204       .  T
C815        C816   1.205       .  T
C817        C818   1.206       .  T
C819        C820   1.209       .  T
C821        C822   1.208       .  T
C823        C824   1.210       .  T
C825        C826   1.331   1_455  D
C826        H828   1.088       .  S
C829        C830   1.331       .  D
C829        H831   1.088   1_455  S
C830       H1696   1.088       .  S
H832       C1694   1.087       .  S
C833        C834   1.212       .  T
C835        C836   1.209       .  T
C837        C838   1.207       .  T
C839        C840   1.206       .  T
C841        C842   1.207       .  T
C843        C844   1.210       .  T
C845        C846   1.410       .  A
C845        C850   1.407       .  A
C845        H851   1.081       .  S
C846        C847   1.411       .  A
C847        C848   1.411       .  A
C847        H852   1.080       .  S
C848        C849   1.411       .  A
C848        H853   1.079       .  S
C849        C850   1.411       .  A
C850        H854   1.082       .  S
C855        C856   1.411       .  A
C855        C860   1.410       .  A
C855        H861   1.081       .  S
C856        C857   1.410       .  A
C857        C858   1.406       .  A
C857        H862   1.080       .  S
C858        C859   1.410       .  A
C858        H863   1.080       .  S
C859        C860   1.411       .  A
C860        H864   1.082       .  S
C865        C867   1.533       .  S
C865        C869   1.545       .  S
C865        C868   1.547       .  S
C865       C1072   1.548       .  S
C866        C870   1.535       .  S
C866        C872   1.550       .  S
C866        C871   1.542       .  S
C866       C1065   1.549       .  S
C867        C875   1.376       .  A
C867       C1086   1.397   1_554  A
C868        C879   1.382       .  A
C868       C1087   1.404   1_554  A
C869        C883   1.381       .  A
C869       C1088   1.403   1_554  A
C870       C1083   1.396       .  A
C870        C873   1.379       .  A
C871       C1084   1.403       .  A
C871        C877   1.379       .  A
C872       C1085   1.415       .  A
C872        C880   1.387       .  A
C873        N874   1.356       .  A
C873        H886   1.082       .  S
N874       C1091   1.355       .  A
N874       C1276   1.402       .  S
C875       N1090   1.355       .  A
C875        H876   1.083       .  S
C877       N1094   1.355       .  A
C877        H887   1.082       .  S
N878       C1093   1.354   1_554  A
N878        C879   1.354       .  A
N878       C1058   1.406       .  S
C879        H885   1.082       .  S
C880        N881   1.350       .  A
C880        H882   1.082       .  S
N881       C1099   1.349       .  A
N881       C1056   1.403       .  S
C883       N1097   1.353       .  A
C883        H884   1.082       .  S
C888        C890   1.534       .  S
C888        C892   1.547       .  S
C888        C891   1.541       .  S
C888       C1062   1.550       .  S
C889        C893   1.535       .  S
C889        C895   1.548       .  S
C889        C894   1.547       .  S
C889       C1075   1.547       .  S
C890        C898   1.375       .  A
C890        C893   1.397       .  A
C891        C902   1.379       .  A
C891        C894   1.403       .  A
C892        C906   1.382       .  A
C892        C895   1.408       .  A
C893        C896   1.379       .  A
C894        C900   1.381       .  A
C895        C903   1.387       .  A
C896        N897   1.356       .  A
C896        H909   1.083       .  S
N897        C898   1.356       .  A
N897       C1053   1.402       .  S
C898        H899   1.083       .  S
C900        N901   1.355       .  A
C900        H910   1.082       .  S
N901        C902   1.353       .  A
N901       C1051   1.403       .  S
C902        H908   1.082       .  S
C903        N904   1.354       .  A
C903        H905   1.082       .  S
N904        C906   1.351       .  A
N904       C1050   1.406       .  S
C906        H907   1.081       .  S
C911        O926   1.261   1_554  A
C911        O913   1.260       .  A
C911       C1059   1.442       .  S
Tb912      O1582   2.370   1_554  S
Tb912      O1367   2.371   1_545  S
Tb912      O1350   2.348   1_545  S
Tb912      O1144   2.291   1_544  S
Tb912       O923   2.311   1_655  S
Tb912       O916   2.352       .  S
Tb912       O933   2.365   1_545  S
O913       Tb917   2.356       .  S
O914        C925   1.262       .  A
O914      Tb1349   2.364       .  S
C915        O920   1.270       .  A
C915        O936   1.272       .  A
C915       C1035   1.433       .  S
O916       C1148   1.261       .  A
Tb917      O1346   2.370   1_545  S
Tb917      O1137   2.335   1_554  S
Tb917       O926   2.367   1_554  S
Tb917       O920   2.341       .  S
Tb917      O1359   2.359   1_545  S
Tb917       O929   2.325       .  S
Tb917      O1351   2.333   1_545  S
O918       C1356   1.260       .  A
O918      Tb1344   2.349       .  S
O919      Tb1349   2.336       .  S
O921        C931   1.272       .  A
O921      Tb1133   2.325       .  S
C922        O935   1.277       .  A
C922       C1057   1.441       .  S
C924       O1350   1.258       .  A
C924        O933   1.262       .  A
C924       C1470   1.437       .  S
C925        O927   1.261       .  A
C925       C1039   1.443       .  S
O927      Tb1349   2.358       .  S
O928      Tb1128   2.297   1_565  S
O929        C930   1.270       .  A
C930       C1046   1.436       .  S
C931       C1042   1.439       .  S
C932       O1132   1.261       .  A
C932       O1366   1.263       .  A
C932       C1055   1.437       .  S
O934       C1364   1.264       .  A
O934      Tb1560   2.367       .  S
O935      Tb1344   2.376       .  S
C937        O952   1.264       .  A
C937        O939   1.259       .  A
C937       C1054   1.435       .  S
Tb938      O1392   2.365       .  S
Tb938      O1393   2.362   1_545  S
Tb938      O1376   2.349   1_545  S
Tb938       O954   2.298   1_545  S
Tb938       O949   2.314   1_655  S
Tb938       O942   2.355       .  S
Tb938       O959   2.359   1_545  S
O939       Tb943   2.342       .  S
O940        C951   1.264       .  A
O940      Tb1375   2.369       .  S
C941        O946   1.274       .  A
C941        O962   1.270       .  A
C941       C1029   1.440       .  S
O942        C958   1.261       .  A
Tb943      O1372   2.364   1_545  S
Tb943       O947   2.300   1_545  S
Tb943       O952   2.362       .  S
Tb943       O946   2.371       .  S
Tb943      O1385   2.349   1_545  S
Tb943       O955   2.298       .  S
Tb943      O1377   2.365   1_545  S
O944       C1382   1.261       .  A
O944      Tb1370   2.358       .  S
O945      Tb1375   2.370       .  S
O947        C957   1.259       .  A
C948        O961   1.271       .  A
C948       C1052   1.437       .  S
C950       O1376   1.260       .  A
C950        O959   1.262       .  A
C950       C1463   1.435       .  S
C951        O953   1.259       .  A
C951       C1034   1.439       .  S
O953      Tb1375   2.347       .  S
O955        C956   1.260       .  A
C956       C1041   1.438       .  S
C957       C1045   1.440       .  S
C958       O1392   1.262       .  A
C958       C1049   1.441       .  S
O960       C1390   1.263       .  A
O960      Tb1370   2.373       .  S
O961      Tb1370   2.347       .  S
C963        C965   1.539       .  S
C963        C967   1.545       .  S
C963        C966   1.544       .  S
C963       C1226   1.548   1_554  S
C964        C968   1.550       .  S
C964        C970   1.539       .  S
C964        C969   1.543       .  S
C964       C1023   1.547       .  S
C965        C973   1.378       .  A
C965        C968   1.403       .  A
C966        C977   1.381       .  A
C966        C969   1.401       .  A
C967        C981   1.381       .  A
C967        C970   1.400       .  A
C968        C971   1.386       .  A
C969        C975   1.378       .  A
C970        C978   1.382       .  A
C971        N972   1.357       .  A
C971        H984   1.082       .  S
N972        C973   1.355       .  A
N972       C1040   1.408       .  S
C973        H974   1.083   1_554  S
C975        N976   1.353       .  A
C975        H985   1.082       .  S
N976        C977   1.353       .  A
N976       C1036   1.401       .  S
C977        H983   1.082   1_554  S
C978        N979   1.356       .  A
C978        H980   1.082       .  S
N979        C981   1.354       .  A
N979       C1037   1.406       .  S
C981        H982   1.081   1_554  S
C986        C988   1.545       .  S
C986        C990   1.538       .  S
C986        C989   1.544       .  S
C986       C1020   1.549       .  S
C987        C991   1.537       .  S
C987        C993   1.551       .  S
C987        C992   1.549       .  S
C987       C1013   1.550       .  S
C988        C996   1.382       .  A
C988        C991   1.400       .  A
C989       C1000   1.381       .  A
C989        C992   1.404       .  A
C990       C1004   1.378       .  A
C990        C993   1.402       .  A
C991        C994   1.381       .  A
C992        C998   1.381       .  A
C993       C1001   1.387       .  A
C994        N995   1.354       .  A
C994       H1007   1.082       .  S
N995        C996   1.353       .  A
N995       C1033   1.405       .  S
C996        H997   1.082       .  S
C998        N999   1.356       .  A
C998       H1008   1.082       .  S
N999       C1000   1.355       .  A
N999       C1030   1.405       .  S
C1000      H1006   1.082       .  S
C1001      N1002   1.358       .  A
C1001      H1003   1.081       .  S
N1002      C1004   1.355       .  A
N1002      C1032   1.408       .  S
C1004      H1005   1.083       .  S
C1009      C1010   1.412       .  A
C1009      C1014   1.410       .  A
C1009      H1015   1.079       .  S
C1010      C1179   1.555       .  S
C1010      C1011   1.411       .  A
C1011      C1012   1.408       .  A
C1011      H1016   1.081       .  S
C1012      C1013   1.412       .  A
C1012      H1017   1.081       .  S
C1013      C1014   1.410       .  A
C1014      H1018   1.080       .  S
C1019      C1020   1.412       .  A
C1019      C1024   1.406       .  A
C1019      H1025   1.079       .  S
C1020      C1021   1.409       .  A
C1021      C1022   1.408       .  A
C1021      H1026   1.082       .  S
C1022      C1023   1.412       .  A
C1022      H1027   1.081       .  S
C1023      C1024   1.408       .  A
C1024      H1028   1.080       .  S
C1029      C1030   1.209       .  T
C1031      C1382   1.444       .  S
C1031      C1032   1.211       .  T
C1033      C1034   1.209       .  T
C1035      C1036   1.205       .  T
C1037      C1038   1.209       .  T
C1038      C1356   1.440       .  S
C1039      C1040   1.211       .  T
C1041      C1042   1.330       .  D
C1041      H1475   1.088       .  S
C1042      H1044   1.087   1_545  S
H1043      C1473   1.088       .  S
C1045      C1046   1.329   1_565  D
C1045      H1047   1.087       .  S
C1049      C1050   1.209       .  T
C1051      C1052   1.207       .  T
C1053      C1054   1.206       .  T
C1055      C1056   1.207       .  T
C1057      C1058   1.209       .  T
C1059      C1060   1.210       .  T
C1060      N1090   1.407       .  S
C1061      C1062   1.410       .  A
C1061      C1066   1.406       .  A
C1061      H1067   1.080       .  S
C1062      C1063   1.411       .  A
C1063      C1064   1.410       .  A
C1063      H1068   1.082       .  S
C1064      C1065   1.411       .  A
C1064      H1069   1.082       .  S
C1065      C1066   1.410       .  A
C1066      H1070   1.080       .  S
C1071      C1072   1.410       .  A
C1071      C1076   1.408       .  A
C1071      H1077   1.080       .  S
C1072      C1073   1.411       .  A
C1073      C1074   1.407       .  A
C1073      H1078   1.081       .  S
C1074      C1075   1.410       .  A
C1074      H1079   1.081       .  S
C1075      C1076   1.410       .  A
C1076      H1080   1.081       .  S
C1081      C1083   1.531       .  S
C1081      C1085   1.546       .  S
C1081      C1084   1.542       .  S
C1081      C1288   1.551       .  S
C1082      C1086   1.540       .  S
C1082      C1088   1.551       .  S
C1082      C1087   1.549       .  S
C1082      C1281   1.549       .  S
C1083      C1091   1.374       .  A
C1084      C1095   1.378       .  A
C1085      C1099   1.382       .  A
C1086      C1089   1.383       .  A
C1087      C1093   1.383       .  A
C1088      C1096   1.388       .  A
C1089      N1090   1.359   1_556  A
C1089      H1102   1.082       .  S
C1091      H1092   1.083       .  S
C1093      H1103   1.081       .  S
N1094      C1095   1.354       .  A
N1094      C1274   1.402       .  S
C1095      H1101   1.082       .  S
C1096      N1097   1.357   1_556  A
C1096      H1098   1.082       .  S
N1097      C1272   1.408       .  S
C1099      H1100   1.082       .  S
C1104      C1106   1.531       .  S
C1104      C1108   1.541       .  S
C1104      C1107   1.547       .  S
C1104      C1278   1.550       .  S
C1105      C1109   1.538       .  S
C1105      C1111   1.549       .  S
C1105      C1110   1.549       .  S
C1105      C1291   1.552       .  S
C1106      C1114   1.374       .  A
C1106      C1109   1.398       .  A
C1107      C1118   1.380       .  A
C1107      C1110   1.407       .  A
C1108      C1122   1.380       .  A
C1108      C1111   1.403       .  A
C1109      C1112   1.381       .  A
C1110      C1116   1.381       .  A
C1111      C1119   1.386       .  A
C1112      N1113   1.357       .  A
C1112      H1125   1.082       .  S
N1113      C1114   1.354       .  A
N1113      C1269   1.403       .  S
C1114      H1115   1.083       .  S
C1116      N1117   1.355       .  A
C1116      H1126   1.082       .  S
N1117      C1118   1.354       .  A
N1117      C1267   1.404       .  S
C1118      H1124   1.081       .  S
C1119      N1120   1.355       .  A
C1119      H1121   1.082       .  S
N1120      C1122   1.351       .  A
N1120      C1266   1.405       .  S
C1122      H1123   1.082       .  S
C1127      O1142   1.261       .  A
C1127      O1129   1.259       .  A
C1127      C1275   1.435       .  S
Tb1128     O1366   2.361       .  S
Tb1128     O1583   2.362   1_545  S
Tb1128     O1566   2.352   1_545  S
Tb1128     O1139   2.305   1_655  S
Tb1128     O1132   2.350       .  S
Tb1128     O1149   2.375   1_545  S
O1129     Tb1133   2.350       .  S
O1130      C1141   1.263       .  A
O1130     Tb1565   2.359       .  S
C1131      O1136   1.269       .  A
C1131      O1152   1.270       .  A
C1131      C1251   1.430       .  S
Tb1133     O1562   2.358   1_545  S
Tb1133     O1142   2.359       .  S
Tb1133     O1136   2.340       .  S
Tb1133     O1575   2.355   1_545  S
Tb1133     O1145   2.309   1_545  S
Tb1133     O1567   2.334   1_545  S
O1134      C1572   1.260       .  A
O1134     Tb1560   2.348       .  S
O1135     Tb1565   2.344       .  S
O1137      C1147   1.276       .  A
C1138      O1151   1.275       .  A
C1138      C1273   1.435       .  S
C1140      O1566   1.259       .  A
C1140      O1149   1.263       .  A
C1140      C1686   1.444       .  S
C1141      O1143   1.261       .  A
C1141      C1255   1.439       .  S
O1143     Tb1565   2.353       .  S
O1145      C1146   1.263   1_565  A
C1146      C1262   1.439       .  S
C1147      C1258   1.438       .  S
C1148      O1582   1.264   1_554  A
C1148      C1271   1.444       .  S
O1150      C1580   1.263   1_556  A
O1150     Tb1344   2.363   1_556  S
O1151     Tb1560   2.370       .  S
C1153      O1168   1.260       .  A
C1153      O1155   1.259       .  A
C1153      C1270   1.435       .  S
Tb1154     O1608   2.360       .  S
Tb1154     O1609   2.354   1_545  S
Tb1154     O1592   2.353   1_545  S
Tb1154     O1170   2.309       .  S
Tb1154     O1165   2.325       .  S
Tb1154     O1158   2.360       .  S
Tb1154     O1175   2.359   1_545  S
O1155     Tb1159   2.351       .  S
O1156      C1167   1.262       .  A
O1156     Tb1591   2.357       .  S
C1157      O1162   1.268       .  A
C1157      O1178   1.270       .  A
C1157      C1245   1.433       .  S
O1158      C1174   1.261       .  A
Tb1159     O1588   2.364   1_545  S
Tb1159     O1163   2.330       .  S
Tb1159     O1168   2.359       .  S
Tb1159     O1162   2.340       .  S
Tb1159     O1601   2.358   1_545  S
Tb1159     O1171   2.311   1_545  S
Tb1159     O1593   2.339   1_545  S
O1160      C1598   1.261       .  A
O1160     Tb1586   2.352       .  S
O1161     Tb1591   2.358       .  S
O1163      C1173   1.271       .  A
C1164      O1177   1.271       .  A
C1164      C1268   1.437       .  S
C1166      O1592   1.261       .  A
C1166      O1175   1.262       .  A
C1166      C1679   1.438       .  S
C1167      O1169   1.262       .  A
C1167      C1250   1.438       .  S
O1169     Tb1591   2.355       .  S
O1171      C1172   1.262   1_565  A
C1172      C1257   1.436       .  S
C1173      C1261   1.434       .  S
C1174      O1608   1.261       .  A
C1174      C1265   1.440       .  S
O1176      C1606   1.262       .  A
O1176     Tb1586   2.361       .  S
O1177     Tb1586   2.350       .  S
C1179      C1181   1.538       .  S
C1179      C1183   1.546       .  S
C1179      C1182   1.543       .  S
C1180      C1184   1.545       .  S
C1180      C1186   1.538       .  S
C1180      C1185   1.544       .  S
C1180      C1239   1.552       .  S
C1181      C1189   1.379       .  A
C1181      C1184   1.405       .  A
C1182      C1193   1.378       .  A
C1182      C1185   1.405       .  A
C1183      C1197   1.380       .  A
C1183      C1186   1.402       .  A
C1184      C1187   1.383       .  A
C1185      C1191   1.378       .  A
C1186      C1194   1.382       .  A
C1187      N1188   1.354       .  A
C1187      H1200   1.082       .  S
N1188      C1189   1.355       .  A
N1188      C1256   1.404       .  S
C1189      H1190   1.082       .  S
C1191      N1192   1.354       .  A
C1191      H1201   1.082       .  S
N1192      C1193   1.352       .  A
N1192      C1252   1.399       .  S
C1193      H1199   1.082       .  S
C1194      N1195   1.356       .  A
C1194      H1196   1.083       .  S
N1195      C1197   1.354       .  A
N1195      C1253   1.405       .  S
C1197      H1198   1.081       .  S
C1202      C1204   1.542       .  S
C1202      C1206   1.538       .  S
C1202      C1205   1.545       .  S
C1202      C1236   1.553       .  S
C1203      C1207   1.536       .  S
C1203      C1209   1.549       .  S
C1203      C1208   1.543       .  S
C1203      C1229   1.547       .  S
C1204      C1212   1.380       .  A
C1204      C1207   1.398       .  A
C1205      C1216   1.379       .  A
C1205      C1208   1.404       .  A
C1206      C1220   1.377       .  A
C1206      C1209   1.408       .  A
C1207      C1210   1.379       .  A
C1208      C1214   1.380       .  A
C1209      C1217   1.387       .  A
C1210      N1211   1.355       .  A
C1210      H1223   1.083       .  S
N1211      C1212   1.355       .  A
N1211      C1249   1.404       .  S
C1212      H1213   1.082       .  S
C1214      N1215   1.353       .  A
C1214      H1224   1.082       .  S
N1215      C1216   1.353       .  A
N1215      C1246   1.400       .  S
C1216      H1222   1.081       .  S
C1217      N1218   1.355       .  A
C1217      H1219   1.081       .  S
N1218      C1220   1.352       .  A
N1218      C1248   1.405       .  S
C1220      H1221   1.083       .  S
C1225      C1226   1.411       .  A
C1225      C1230   1.408       .  A
C1225      H1231   1.080       .  S
C1226      C1227   1.409       .  A
C1227      C1228   1.405       .  A
C1227      H1232   1.081       .  S
C1228      C1229   1.410       .  A
C1228      H1233   1.082       .  S
C1229      C1230   1.410       .  A
C1230      H1234   1.079       .  S
C1235      C1236   1.410       .  A
C1235      C1240   1.407       .  A
C1235      H1241   1.081       .  S
C1236      C1237   1.413       .  A
C1237      C1238   1.411       .  A
C1237      H1242   1.079       .  S
C1238      C1239   1.411       .  A
C1238      H1243   1.081       .  S
C1239      C1240   1.411       .  A
C1240      H1244   1.080       .  S
C1245      C1246   1.205       .  T
C1247      C1598   1.439       .  S
C1247      C1248   1.209       .  T
C1249      C1250   1.208       .  T
C1251      C1252   1.203       .  T
C1253      C1254   1.209       .  T
C1254      C1572   1.440       .  S
C1255      C1256   1.208       .  T
C1257      C1258   1.327       .  D
C1257      H1691   1.088       .  S
C1258      H1260   1.088       .  S
H1259      C1689   1.088       .  S
C1261      C1262   1.327       .  D
C1261      H1263   1.088       .  S
C1265      C1266   1.209       .  T
C1267      C1268   1.207       .  T
C1269      C1270   1.206       .  T
C1271      C1272   1.211       .  T
C1273      C1274   1.206       .  T
C1275      C1276   1.206       .  T
C1277      C1278   1.412       .  A
C1277      C1282   1.406       .  A
C1277      H1283   1.082       .  S
C1278      C1279   1.410       .  A
C1279      C1280   1.410       .  A
C1279      H1284   1.080       .  S
C1280      C1281   1.412       .  A
C1280      H1285   1.080       .  S
C1281      C1282   1.409       .  A
C1282      H1286   1.081       .  S
C1287      C1288   1.411       .  A
C1287      C1292   1.409       .  A
C1287      H1293   1.082       .  S
C1288      C1289   1.410       .  A
C1289      C1290   1.409       .  A
C1289      H1294   1.081       .  S
C1290      C1291   1.412       .  A
C1290      H1295   1.081       .  S
C1291      C1292   1.410       .  A
C1292      H1296   1.081       .  S
C1297      C1299   1.537       .  S
C1297      C1301   1.544       .  S
C1297      C1300   1.546       .  S
C1297      C1504   1.553       .  S
C1298      C1302   1.540       .  S
C1298      C1304   1.555       .  S
C1298      C1303   1.546       .  S
C1298      C1497   1.549       .  S
C1299      C1307   1.377       .  A
C1299      C1518   1.399   1_554  A
C1300      C1311   1.381       .  A
C1300      C1519   1.406   1_554  A
C1301      C1315   1.382       .  A
C1301      C1520   1.404   1_554  A
C1302      C1515   1.396       .  A
C1302      C1305   1.383       .  A
C1303      C1516   1.403       .  A
C1303      C1309   1.380       .  A
C1304      C1517   1.405       .  A
C1304      C1312   1.390       .  A
C1305      N1306   1.359       .  A
C1305      H1318   1.082       .  S
N1306      C1523   1.356       .  A
N1306      C1708   1.407       .  S
C1307      N1522   1.357       .  A
C1307      H1308   1.083       .  S
C1309      N1526   1.354       .  A
C1309      H1319   1.082       .  S
N1310      C1525   1.356   1_554  A
N1310      C1311   1.355       .  A
N1310      C1490   1.407       .  S
C1311      H1317   1.082       .  S
C1312      N1313   1.356       .  A
C1312      H1314   1.081       .  S
N1313      C1531   1.353       .  A
N1313      C1488   1.411       .  S
C1315      N1529   1.351       .  A
C1315      H1316   1.081       .  S
C1320      C1322   1.533       .  S
C1320      C1324   1.550       .  S
C1320      C1323   1.544       .  S
C1320      C1494   1.550       .  S
C1321      C1325   1.535       .  S
C1321      C1327   1.554       .  S
C1321      C1326   1.546       .  S
C1321      C1507   1.550       .  S
C1322      C1330   1.375       .  A
C1322      C1325   1.396       .  A
C1323      C1334   1.380       .  A
C1323      C1326   1.404       .  A
C1324      C1338   1.385       .  A
C1324      C1327   1.408       .  A
C1325      C1328   1.380       .  A
C1326      C1332   1.379       .  A
C1327      C1335   1.389       .  A
C1328      N1329   1.357       .  A
C1328      H1341   1.082       .  S
N1329      C1330   1.355       .  A
N1329      C1485   1.403       .  S
C1330      H1331   1.083       .  S
C1332      N1333   1.354       .  A
C1332      H1342   1.082       .  S
N1333      C1334   1.354       .  A
N1333      C1483   1.402       .  S
C1334      H1340   1.082       .  S
C1335      N1336   1.356       .  A
C1335      H1337   1.082       .  S
N1336      C1338   1.354       .  A
N1336      C1482   1.411       .  S
C1338      H1339   1.082       .  S
C1343      O1358   1.262   1_554  A
C1343      O1345   1.259       .  A
C1343      C1491   1.437       .  S
Tb1344     O1576   2.295   1_554  S
Tb1344     O1355   2.298   1_655  S
Tb1344     O1348   2.352       .  S
Tb1344     O1365   2.368       .  S
O1345     Tb1349   2.347       .  S
O1346      C1357   1.262       .  A
C1347      O1352   1.269       .  A
C1347      O1368   1.273       .  A
C1347      C1467   1.431       .  S
O1348      C1580   1.261       .  A
Tb1349     O1569   2.333   1_554  S
Tb1349     O1358   2.365   1_554  S
Tb1349     O1352   2.335       .  S
Tb1349     O1361   2.333       .  S
O1353      C1363   1.272       .  A
O1353     Tb1565   2.334       .  S
C1354      O1367   1.274       .  A
C1354      C1489   1.443       .  S
C1356      O1365   1.263       .  A
C1357      O1359   1.259       .  A
C1357      C1471   1.444       .  S
O1360     Tb1560   2.294       .  S
O1361      C1362   1.272       .  A
C1362      C1478   1.440       .  S
C1363      C1474   1.445       .  S
C1364      O1564   1.262       .  A
C1364      C1487   1.448       .  S
C1369      O1384   1.263       .  A
C1369      O1371   1.260       .  A
C1369      C1486   1.437       .  S
Tb1370     O1386   2.322       .  S
Tb1370     O1381   2.324       .  S
Tb1370     O1374   2.362       .  S
Tb1370     O1391   2.364       .  S
O1371     Tb1375   2.347       .  S
O1372      C1383   1.262       .  A
C1373      O1378   1.274       .  A
C1373      O1394   1.270       .  A
C1373      C1461   1.442       .  S
O1374      C1390   1.261       .  A
Tb1375     O1379   2.296       .  S
Tb1375     O1384   2.362       .  S
Tb1375     O1378   2.373       .  S
Tb1375     O1387   2.304       .  S
O1379      C1389   1.259       .  A
C1380      O1393   1.272       .  A
C1380      C1484   1.436       .  S
C1382      O1391   1.263       .  A
C1383      O1385   1.260       .  A
C1383      C1466   1.438       .  S
O1387      C1388   1.262       .  A
C1388      C1473   1.441       .  S
C1389      C1477   1.445       .  S
C1390      C1481   1.449       .  S
C1395      C1397   1.539       .  S
C1395      C1399   1.545       .  S
C1395      C1398   1.541       .  S
C1395      C1658   1.550   1_554  S
C1396      C1400   1.549       .  S
C1396      C1402   1.538       .  S
C1396      C1401   1.543       .  S
C1396      C1455   1.547       .  S
C1397      C1405   1.379       .  A
C1397      C1400   1.404       .  A
C1398      C1409   1.377       .  A
C1398      C1401   1.402       .  A
C1399      C1413   1.381       .  A
C1399      C1402   1.402       .  A
C1400      C1403   1.386       .  A
C1401      C1407   1.379       .  A
C1402      C1410   1.381       .  A
C1403      N1404   1.356       .  A
C1403      H1416   1.081       .  S
N1404      C1405   1.355       .  A
N1404      C1472   1.408       .  S
C1405      H1406   1.083   1_554  S
C1407      N1408   1.354       .  A
C1407      H1417   1.082       .  S
N1408      C1409   1.352       .  A
N1408      C1468   1.399       .  S
C1409      H1415   1.082   1_554  S
C1410      N1411   1.354       .  A
C1410      H1412   1.082       .  S
N1411      C1413   1.353       .  A
N1411      C1469   1.404       .  S
C1413      H1414   1.082       .  S
C1418      C1420   1.544       .  S
C1418      C1422   1.534       .  S
C1418      C1421   1.544       .  S
C1418      C1452   1.550       .  S
C1419      C1423   1.540       .  S
C1419      C1425   1.544       .  S
C1419      C1424   1.551       .  S
C1419      C1445   1.550       .  S
C1420      C1428   1.380       .  A
C1420      C1423   1.403       .  A
C1421      C1432   1.381       .  A
C1421      C1424   1.404       .  A
C1422      C1436   1.375       .  A
C1422      C1425   1.400       .  A
C1423      C1426   1.382       .  A
C1424      C1430   1.383       .  A
C1425      C1433   1.383       .  A
C1426      N1427   1.355       .  A
C1426      H1439   1.082       .  S
N1427      C1428   1.352       .  A
N1427      C1465   1.404       .  S
C1428      H1429   1.082       .  S
C1430      N1431   1.356       .  A
C1430      H1440   1.082       .  S
N1431      C1432   1.355       .  A
N1431      C1462   1.406       .  S
C1432      H1438   1.082       .  S
C1433      N1434   1.355       .  A
C1433      H1435   1.082       .  S
N1434      C1436   1.354       .  A
N1434      C1464   1.402       .  S
C1436      H1437   1.083       .  S
C1441      C1442   1.411       .  A
C1441      C1446   1.409       .  A
C1441      H1447   1.080       .  S
C1442      C1611   1.550       .  S
C1442      C1443   1.411       .  A
C1443      C1444   1.408       .  A
C1443      H1448   1.081       .  S
C1444      C1445   1.410       .  A
C1444      H1449   1.080       .  S
C1445      C1446   1.411       .  A
C1446      H1450   1.081       .  S
C1451      C1452   1.411       .  A
C1451      C1456   1.407       .  A
C1451      H1457   1.079       .  S
C1452      C1453   1.410       .  A
C1453      C1454   1.407       .  A
C1453      H1458   1.082       .  S
C1454      C1455   1.411       .  A
C1454      H1459   1.082       .  S
C1455      C1456   1.408       .  A
C1456      H1460   1.080       .  S
C1461      C1462   1.210       .  T
C1463      C1464   1.206       .  T
C1465      C1466   1.208       .  T
C1467      C1468   1.203       .  T
C1469      C1470   1.208       .  T
C1471      C1472   1.211       .  T
C1473      C1474   1.332       .  D
C1474      H1476   1.088       .  S
C1477      C1478   1.329       .  D
C1477      H1479   1.087       .  S
C1481      C1482   1.214       .  T
C1483      C1484   1.206       .  T
C1485      C1486   1.207       .  T
C1487      C1488   1.214       .  T
C1489      C1490   1.210       .  T
C1491      C1492   1.208       .  T
C1492      N1522   1.404       .  S
C1493      C1494   1.410       .  A
C1493      C1498   1.406       .  A
C1493      H1499   1.079       .  S
C1494      C1495   1.411       .  A
C1495      C1496   1.409       .  A
C1495      H1500   1.081       .  S
C1496      C1497   1.411       .  A
C1496      H1501   1.081       .  S
C1497      C1498   1.409       .  A
C1498      H1502   1.079       .  S
C1503      C1504   1.410       .  A
C1503      C1508   1.411       .  A
C1503      H1509   1.081       .  S
C1504      C1505   1.412       .  A
C1505      C1506   1.406       .  A
C1505      H1510   1.080       .  S
C1506      C1507   1.408       .  A
C1506      H1511   1.080       .  S
C1507      C1508   1.413       .  A
C1508      H1512   1.081       .  S
C1513      C1515   1.534       .  S
C1513      C1517   1.547       .  S
C1513      C1516   1.545       .  S
C1513      C1720   1.546       .  S
C1514      C1518   1.536       .  S
C1514      C1520   1.547       .  S
C1514      C1519   1.550       .  S
C1514      C1713   1.552       .  S
C1515      C1523   1.377       .  A
C1516      C1527   1.381       .  A
C1517      C1531   1.384       .  A
C1518      C1521   1.379       .  A
C1519      C1525   1.383       .  A
C1520      C1528   1.386       .  A
C1521      N1522   1.356   1_556  A
C1521      H1534   1.083       .  S
C1523      H1524   1.083       .  S
C1525      H1535   1.081       .  S
N1526      C1527   1.354       .  A
N1526      C1706   1.403       .  S
C1527      H1533   1.082       .  S
C1528      N1529   1.353   1_556  A
C1528      H1530   1.082       .  S
N1529      C1704   1.405       .  S
C1531      H1532   1.081       .  S
C1536      C1538   1.534       .  S
C1536      C1540   1.548       .  S
C1536      C1539   1.548       .  S
C1536      C1710   1.552       .  S
C1537      C1541   1.533       .  S
C1537      C1543   1.546       .  S
C1537      C1542   1.546       .  S
C1537      C1723   1.545       .  S
C1538      C1546   1.375       .  A
C1538      C1541   1.397       .  A
C1539      C1550   1.382       .  A
C1539      C1542   1.405       .  A
C1540      C1554   1.383       .  A
C1540      C1543   1.404       .  A
C1541      C1544   1.379       .  A
C1542      C1548   1.380       .  A
C1543      C1551   1.384       .  A
C1544      N1545   1.356       .  A
C1544      H1557   1.082       .  S
N1545      C1546   1.356       .  A
N1545      C1701   1.403       .  S
C1546      H1547   1.083       .  S
C1548      N1549   1.353       .  A
C1548      H1558   1.081       .  S
N1549      C1550   1.354       .  A
N1549      C1699   1.404       .  S
C1550      H1556   1.081       .  S
C1551      N1552   1.354       .  A
C1551      H1553   1.082       .  S
N1552      C1554   1.354       .  A
N1552      C1698   1.406       .  S
C1554      H1555   1.082       .  S
C1559      O1574   1.263       .  A
C1559      O1561   1.260       .  A
C1559      C1707   1.442       .  S
Tb1560     O1571   2.305   1_655  S
Tb1560     O1564   2.363       .  S
Tb1560     O1581   2.368       .  S
O1561     Tb1565   2.353       .  S
O1562      C1573   1.261       .  A
C1563      O1568   1.272       .  A
C1563      O1584   1.273       .  A
C1563      C1683   1.436       .  S
Tb1565     O1574   2.370       .  S
Tb1565     O1568   2.347       .  S
Tb1565     O1577   2.316       .  S
O1569      C1579   1.271       .  A
C1570      O1583   1.273       .  A
C1570      C1705   1.436       .  S
C1572      O1581   1.264       .  A
C1573      O1575   1.261       .  A
C1573      C1687   1.438       .  S
O1577      C1578   1.264       .  A
C1578      C1694   1.442       .  S
C1579      C1690   1.443       .  S
C1580      C1703   1.439       .  S
C1585      O1600   1.264       .  A
C1585      O1587   1.258       .  A
C1585      C1702   1.436       .  S
Tb1586     O1602   2.311   1_655  S
Tb1586     O1597   2.327       .  S
Tb1586     O1590   2.354       .  S
Tb1586     O1607   2.359       .  S
O1587     Tb1591   2.341       .  S
O1588      C1599   1.260       .  A
C1589      O1594   1.275       .  A
C1589      O1610   1.272       .  A
C1589      C1677   1.436       .  S
O1590      C1606   1.261       .  A
Tb1591     O1595   2.301       .  S
Tb1591     O1600   2.368       .  S
Tb1591     O1594   2.366       .  S
Tb1591     O1603   2.292       .  S
O1595      C1605   1.265       .  A
C1596      O1609   1.272       .  A
C1596      C1700   1.437       .  S
C1598      O1607   1.263       .  A
C1599      O1601   1.260       .  A
C1599      C1682   1.440       .  S
O1603      C1604   1.261       .  A
C1604      C1689   1.442       .  S
C1605      C1693   1.442       .  S
C1606      C1697   1.440       .  S
C1611      C1613   1.534       .  S
C1611      C1615   1.544       .  S
C1611      C1614   1.545       .  S
C1612      C1616   1.548       .  S
C1612      C1618   1.542       .  S
C1612      C1617   1.545       .  S
C1612      C1671   1.548       .  S
C1613      C1621   1.376       .  A
C1613      C1616   1.401       .  A
C1614      C1625   1.380       .  A
C1614      C1617   1.403       .  A
C1615      C1629   1.380       .  A
C1615      C1618   1.402       .  A
C1616      C1619   1.385       .  A
C1617      C1623   1.381       .  A
C1618      C1626   1.384       .  A
C1619      N1620   1.356       .  A
C1619      H1632   1.082       .  S
N1620      C1621   1.353       .  A
N1620      C1688   1.404       .  S
C1621      H1622   1.082       .  S
C1623      N1624   1.353       .  A
C1623      H1633   1.082       .  S
N1624      C1625   1.354       .  A
N1624      C1684   1.402       .  S
C1625      H1631   1.081       .  S
C1626      N1627   1.357       .  A
C1626      H1628   1.083       .  S
N1627      C1629   1.355       .  A
N1627      C1685   1.408       .  S
C1629      H1630   1.082       .  S
C1634      C1636   1.542       .  S
C1634      C1638   1.533       .  S
C1634      C1637   1.544       .  S
C1634      C1668   1.548       .  S
C1635      C1639   1.539       .  S
C1635      C1641   1.549       .  S
C1635      C1640   1.547       .  S
C1635      C1661   1.547       .  S
C1636      C1644   1.379       .  A
C1636      C1639   1.400       .  A
C1637      C1648   1.379       .  A
C1637      C1640   1.404       .  A
C1638      C1652   1.375       .  A
C1638      C1641   1.401       .  A
C1639      C1642   1.382       .  A
C1640      C1646   1.382       .  A
C1641      C1649   1.386       .  A
C1642      N1643   1.356       .  A
C1642      H1655   1.083       .  S
N1643      C1644   1.353       .  A
N1643      C1681   1.405       .  S
C1644      H1645   1.082       .  S
C1646      N1647   1.355       .  A
C1646      H1656   1.082       .  S
N1647      C1648   1.354       .  A
N1647      C1678   1.403       .  S
C1648      H1654   1.082       .  S
C1649      N1650   1.357       .  A
C1649      H1651   1.082       .  S
N1650      C1652   1.352       .  A
N1650      C1680   1.404       .  S
C1652      H1653   1.083       .  S
C1657      C1658   1.410       .  A
C1657      C1662   1.407       .  A
C1657      H1663   1.080       .  S
C1658      C1659   1.410       .  A
C1659      C1660   1.407       .  A
C1659      H1664   1.081       .  S
C1660      C1661   1.411       .  A
C1660      H1665   1.081       .  S
C1661      C1662   1.410       .  A
C1662      H1666   1.080       .  S
C1667      C1668   1.411       .  A
C1667      C1672   1.407       .  A
C1667      H1673   1.080       .  S
C1668      C1669   1.410       .  A
C1669      C1670   1.407       .  A
C1669      H1674   1.081       .  S
C1670      C1671   1.411       .  A
C1670      H1675   1.081       .  S
C1671      C1672   1.409       .  A
C1672      H1676   1.080       .  S
C1677      C1678   1.207       .  T
C1679      C1680   1.208       .  T
C1681      C1682   1.209       .  T
C1683      C1684   1.206       .  T
C1685      C1686   1.211       .  T
C1687      C1688   1.208       .  T
C1689      C1690   1.331       .  D
C1690      H1692   1.088       .  S
C1693      C1694   1.334       .  D
C1693      H1695   1.087       .  S
C1697      C1698   1.209       .  T
C1699      C1700   1.207       .  T
C1701      C1702   1.207       .  T
C1703      C1704   1.208       .  T
C1705      C1706   1.207       .  T
C1707      C1708   1.210       .  T
C1709      C1710   1.410       .  A
C1709      C1714   1.407       .  A
C1709      H1715   1.081       .  S
C1710      C1711   1.412       .  A
C1711      C1712   1.411       .  A
C1711      H1716   1.080       .  S
C1712      C1713   1.410       .  A
C1712      H1717   1.081       .  S
C1713      C1714   1.411       .  A
C1714      H1718   1.081       .  S
C1719      C1720   1.410       .  A
C1719      C1724   1.407       .  A
C1719      H1725   1.081       .  S
C1720      C1721   1.410       .  A
C1721      C1722   1.405       .  A
C1721      H1726   1.080       .  S
C1722      C1723   1.410       .  A
C1722      H1727   1.081       .  S
C1723      C1724   1.410       .  A
C1724      H1728   1.081       .  S
