geometry optimzed in LAMMPS
_audit_creation_date              2020-11-30 
_audit_creation_method            'lammps2cif' 
_symmetry_space_group_name_H-M    'P1' 
_symmetry_Int_Tables_number       1 
_symmetry_cell_setting            triclinic 
loop_ 
_symmetry_equiv_pos_as_xyz 
  x,y,z 
_cell_length_a                    33.65654759 
_cell_length_b                    34.20711895444853 
_cell_length_c                    69.0963336913487 
_cell_angle_alpha                 89.55557477463552 
_cell_angle_beta                  89.6259850862491 
_cell_angle_gamma                 89.68372017453547 
loop_ 
_atom_site_label 
_atom_site_type_symbol 
_atom_site_fract_x 
_atom_site_fract_y 
_atom_site_fract_z 
_atom_site_charge 
N1          N  0.37834192  0.25235581  0.34915378    -0.34800
N2          N  0.37366670  0.19266610  0.38039627    -0.55400
N3          N  0.37103588  0.25368884  0.40862571    -0.34800
N4          N  0.37872498  0.31317859  0.37794159    -0.55400
C5          C  0.38749558  0.21930298  0.33931354     0.28800
C6          C  0.38978573  0.28348248  0.33809606     0.28800
C7          C  0.37539196  0.22232453  0.42052523     0.28800
C8          C  0.37821636  0.28588362  0.41919056     0.28800
C9          C  0.36967279  0.16947599  0.36479672     0.37400
C10         C  0.36480031  0.17048100  0.39617061     0.37400
C11         C  0.37614032  0.33605463  0.36195253     0.37400
C12         C  0.37099077  0.33654218  0.39317772     0.37400
C13         C  0.40419275  0.22963657  0.32157150    -0.20100
C14         C  0.40562148  0.26997982  0.32081768    -0.20100
C15         C  0.38543301  0.23482121  0.43889269    -0.20100
C16         C  0.38716958  0.27494551  0.43806094    -0.20100
C17         C  0.35850695  0.13221767  0.37072688    -0.21200
C18         C  0.35532925  0.13290830  0.39057393    -0.21200
C19         C  0.36717007  0.37421941  0.36708033    -0.21200
C20         C  0.36370836  0.37449871  0.38686291    -0.21200
C21         C  0.37983203  0.18020133  0.34555667    -0.16500
C22         C  0.38520281  0.32365247  0.34300309    -0.16500
C23         C  0.37323882  0.32482781  0.41274981    -0.16500
C24         C  0.36775410  0.18308614  0.41557249    -0.16500
H25         H  0.41434313  0.21012887  0.31029221     0.16400
H26         H  0.41709512  0.28737161  0.30890329     0.16400
H27         H  0.39031995  0.21694890  0.45166013     0.16400
H28         H  0.39354811  0.29395607  0.45008721     0.16400
H29         H  0.35380159  0.10694778  0.36171052     0.14700
H30         H  0.34768158  0.10838051  0.39983380     0.14700
H31         H  0.36393657  0.39933534  0.35758513     0.14700
H32         H  0.35737928  0.39992354  0.39561174     0.14700
H33         H  0.36192714  0.25347401  0.36191117     0.27900
H34         H  0.35869472  0.25369874  0.39490784     0.27900
N35         N  0.13844652  0.26189976  0.40360772    -0.34800
N36         N  0.13347618  0.32234252  0.37437130    -0.55400
N37         N  0.13101310  0.26206522  0.34394485    -0.34800
N38         N  0.13193311  0.20165872  0.37372213    -0.55400
C39         C  0.13384860  0.29335923  0.41524667     0.28800
C40         C  0.13508793  0.22959256  0.41485851     0.28800
C41         C  0.12229330  0.29469909  0.33347776     0.28800
C42         C  0.12038373  0.23055822  0.33328131     0.28800
C43         C  0.13965505  0.34539576  0.38990823     0.37400
C44         C  0.13648008  0.34557889  0.35853989     0.37400
C45         C  0.14005816  0.17846663  0.38912168     0.37400
C46         C  0.13304500  0.17839973  0.35798787     0.37400
C47         C  0.12781324  0.28075180  0.43416581    -0.20100
C48         C  0.12874942  0.24055273  0.43393535    -0.20100
C49         C  0.10722857  0.28371034  0.31567972    -0.20100
C50         C  0.10598103  0.24339839  0.31557473    -0.20100
C51         C  0.14640340  0.38352607  0.38391290    -0.21200
C52         C  0.14441659  0.38366545  0.36408363    -0.21200
C53         C  0.14593191  0.14020436  0.38314909    -0.21200
C54         C  0.14124254  0.14013538  0.36346122    -0.21200
C55         C  0.13734180  0.33301355  0.40946729    -0.16500
C56         C  0.14021313  0.19064279  0.40861269    -0.16500
C57         C  0.12399471  0.19058575  0.33894402    -0.16500
C58         C  0.12803972  0.33407167  0.33937735    -0.16500
H59         H  0.12378917  0.29863007  0.44689091     0.16400
H60         H  0.12549708  0.22156100  0.44644174     0.16400
H61         H  0.09774579  0.30276632  0.30399623     0.16400
H62         H  0.09542008  0.22559501  0.30381346     0.16400
H63         H  0.15169964  0.40873511  0.39288909     0.14700
H64         H  0.14767217  0.40912549  0.35482113     0.14700
H65         H  0.15230273  0.11481345  0.39206885     0.14700
H66         H  0.14345177  0.11476404  0.35424346     0.14700
H67         H  0.14784526  0.26215093  0.38944783     0.27900
H68         H  0.14611172  0.26148346  0.35685915     0.27900
O69         O  0.29450323  0.42710183  0.49527400    -0.78400
O70         O  0.28842552  0.06464194  0.53390080    -0.78400
O71         O  0.30307844  0.02794960  0.48512350    -0.78400
O72         O  0.30816098  0.47981795  0.53899590    -0.78300
O73         O  0.28646660  0.08258944  0.49784590    -0.78500
O74         O  0.28393853  0.42118193  0.53459291    -0.78400
O75         O  0.26961274  0.03231692  0.56082024    -0.78400
O76         O  0.27103312  0.46324613  0.47109287    -0.78400
C77         C  0.29530444  0.43820295  0.47779138     1.11300
C78         C  0.29028885  0.05853420  0.55240148     1.11200
C79         C  0.30849183  0.06437948  0.48647926     1.11400
C80         C  0.30955062  0.44331631  0.54194671     1.11200
O81         O  0.20058502  0.42867364  0.52987573    -0.78400
O82         O  0.21446553  0.06891901  0.48933756    -0.78400
O83         O  0.19278780  0.48477768  0.48253093    -0.78400
O84         O  0.19913415  0.02650664  0.54210399    -0.78400
O85         O  0.21142059  0.08105738  0.52774803    -0.78400
O86         O  0.21092768  0.42438948  0.48983153    -0.78400
O87         O  0.23007946  0.46033280  0.55371501    -0.78300
O88         O  0.23722662  0.03724158  0.46319565    -0.78400
Co89       Co  0.24730707  0.42912231  0.51232841     1.51500
Co90       Co  0.24879024  0.05013117  0.51242059     1.51700
Co91       Co  0.24686476  0.00720734  0.48570770     1.51600
Co92       Co  0.25446294  0.00451711  0.53868353     1.51500
O93         O  0.24763188  0.98847929  0.51226137    -1.40300
C94         C  0.20321281  0.43755367  0.54760387     1.11300
C95         C  0.21627546  0.06422100  0.47075001     1.11300
C96         C  0.18917239  0.44816747  0.48056813     1.11300
C97         C  0.19194939  0.06253213  0.54009838     1.11300
N98         N  0.36945770  0.25223408  0.67710961    -0.34800
N99         N  0.36769196  0.31360147  0.64702616    -0.55400
N100        N  0.36397555  0.25457787  0.61759770    -0.34800
N101        N  0.36940574  0.19330459  0.64738158    -0.55400
C102        C  0.37841945  0.28413938  0.68760302     0.28800
C103        C  0.38049436  0.22044570  0.68764541     0.28800
C104        C  0.36972781  0.28648785  0.60621311     0.28800
C105        C  0.36930960  0.22276383  0.60641377     0.28800
C106        C  0.36335090  0.33596620  0.66293157     0.37400
C107        C  0.36143716  0.33731068  0.63155323     0.37400
C108        C  0.36741266  0.16952825  0.66306291     0.37400
C109        C  0.36230176  0.17073351  0.63187273     0.37400
C110        C  0.39450781  0.27246821  0.70519445    -0.20100
C111        C  0.39584343  0.23230318  0.70520451    -0.20100
C112        C  0.37835988  0.27470101  0.58747631    -0.20100
C113        C  0.37797350  0.23449898  0.58758771    -0.20100
C114        C  0.35461752  0.37419723  0.65752383    -0.21200
C115        C  0.35339843  0.37503102  0.63765855    -0.21200
C116        C  0.35952012  0.13153588  0.65748622    -0.21200
C117        C  0.35604910  0.13231681  0.63772671    -0.21200
C118        C  0.37128388  0.32342210  0.68206857    -0.16500
C119        C  0.37592875  0.18105129  0.68212239    -0.16500
C120        C  0.36421965  0.18356869  0.61243638    -0.16500
C121        C  0.36506496  0.32584029  0.61200457    -0.16500
H122        H  0.40438137  0.29095952  0.71683798     0.16400
H123        H  0.40689433  0.21394598  0.71683204     0.16400
H124        H  0.38390343  0.29313220  0.57495592     0.16400
H125        H  0.38321811  0.21601657  0.57517437     0.16400
H126        H  0.35035675  0.39908398  0.66690653     0.14700
H127        H  0.34778564  0.40059124  0.62873717     0.14700
H128        H  0.35702438  0.10586748  0.66666463     0.14700
H129        H  0.35043960  0.10726911  0.62868685     0.14700
H130        H  0.35327991  0.25227821  0.66436591     0.27900
H131        H  0.35252581  0.25429330  0.63155782     0.27900
N132        N  0.11672072  0.24389169  0.67623904    -0.34800
N133        N  0.12006915  0.30690753  0.64829926    -0.55400
N134        N  0.13033400  0.25046944  0.61736991    -0.34800
N135        N  0.12521936  0.18732970  0.64488014    -0.55400
C136        C  0.10283265  0.27402369  0.68698999     0.28800
C137        C  0.10523543  0.21051206  0.68517274     0.28800
C138        C  0.12301547  0.28347696  0.60710738     0.28800
C139        C  0.12571956  0.21999054  0.60523078     0.28800
C140        C  0.12183614  0.32790449  0.66472682     0.37400
C141        C  0.12976751  0.33152290  0.63369141     0.37400
C142        C  0.12784170  0.16288622  0.66024179     0.37400
C143        C  0.13560055  0.16635586  0.62911935     0.37400
C144        C  0.08275139  0.25964779  0.70308461    -0.20100
C145        C  0.08424306  0.21952452  0.70194331    -0.20100
C146        C  0.11375861  0.27393717  0.58819193    -0.20100
C147        C  0.11545580  0.23382882  0.58700929    -0.20100
C148        C  0.13255853  0.36613938  0.66055244    -0.21200
C149        C  0.13772750  0.36840837  0.64084786    -0.21200
C150        C  0.13987608  0.12604265  0.65422538    -0.21200
C151        C  0.14489058  0.12827760  0.63448030    -0.21200
C152        C  0.10944631  0.31399921  0.68300375    -0.16500
C153        C  0.11498262  0.17227255  0.67912360    -0.16500
C154        C  0.13317338  0.18036531  0.60989387    -0.16500
C155        C  0.12809403  0.32187561  0.61393582    -0.16500
H156        H  0.06859830  0.27631409  0.71448579     0.16400
H157        H  0.07143088  0.19930648  0.71233717     0.16400
H158        H  0.10713937  0.29385328  0.57638294     0.16400
H159        H  0.11029762  0.21683777  0.57412660     0.16400
H160        H  0.13544603  0.39007107  0.67059462     0.14700
H161        H  0.14540461  0.39445521  0.63268615     0.14700
H162        H  0.14358110  0.10003356  0.66306673     0.14700
H163        H  0.15329278  0.10437632  0.62510277     0.14700
H164        H  0.13638554  0.24584455  0.66460433     0.27900
H165        H  0.14286228  0.24924835  0.63106439     0.27900
C166        C  0.41397549  0.09582206  0.30746930     0.44200
N167        N  0.45094207  0.07813707  0.28378715     0.03100
C168        C  0.44649137  0.41513103  0.22539252    -0.04800
H169        H  0.47722323  0.37649511  0.29492196     0.08600
C170        C  0.10022499  0.45861017  0.29641993    -0.05100
Co171      Co  0.42562456  0.50407897  0.26509583     0.74200
N172        N  0.46193761  0.43245057  0.28246647    -0.24300
Co173      Co  0.00367280  0.43810743  0.26040059     0.74100
C174        C  0.08854094  0.41937109  0.30290473     0.44300
N175        N  0.06715462  0.05950585  0.28369183     0.02700
N176        N  0.04822851  0.43904786  0.28110312     0.02800
N177        N  0.39646605  0.45797871  0.23107532    -0.45100
H178        H  0.37519681  0.04058904  0.30499716     0.08600
N179        N  0.43225856  0.45727811  0.28524977     0.03100
N180        N  0.04822538  0.44470944  0.23915812     0.02900
C181        C  0.09251801  0.43486629  0.21723543     0.44500
N182        N  0.03729527  0.08462445  0.28243192    -0.23700
C183        C  0.39140486  0.05226724  0.23115611    -0.04700
N184        N  0.44469699  0.10663450  0.29625152    -0.44800
N185        N  0.05889901  0.41999133  0.22525350    -0.45100
C186        C  0.40174561  0.08724539  0.22042414     0.44300
N187        N  0.42612670  0.46284761  0.24325117     0.03100
N188        N  0.03840016  0.08300559  0.24034764    -0.23800
N189        N  0.42617137  0.04851122  0.28606869    -0.24300
N190        N  0.06837213  0.05803940  0.24173781     0.02800
H191        H  0.03120459  0.13583083  0.22314335     0.08600
H192        H  0.12885857  0.48774314  0.22648142     0.08700
N193        N  0.45620738  0.43852266  0.24032749    -0.24300
N194        N  0.07305196  0.46862982  0.28297432    -0.23900
N195        N  0.44661252  0.07619722  0.24171940     0.03100
C196        C  0.42249577  0.41002679  0.30559577     0.44500
C197        C  0.04308572  0.11407889  0.29466569    -0.05200
N198        N  0.07400600  0.47341256  0.24102311    -0.23900
H199        H  0.12651041  0.47510474  0.29991422     0.08700
N200        N  0.40700398  0.44429140  0.29878551    -0.45100
H201        H  0.02497655  0.14022226  0.29564865     0.08700
C202        C  0.08721630  0.09715474  0.21926145     0.44400
C203        C  0.40098867  0.05735395  0.30071033    -0.04700
Co204      Co  0.99313014  0.08104532  0.26173210     0.73800
N205        N  0.09472315  0.07154752  0.29603266    -0.44900
C206        C  0.40678264  0.42863253  0.21930020     0.44600
N207        N  0.43595277  0.10128829  0.22785403    -0.44800
Co208      Co  0.07116779  0.51481660  0.26274127     0.73900
C209        C  0.10263924  0.46972376  0.22770678    -0.05200
C210        C  0.45847399  0.40228009  0.29475005    -0.04700
N211        N  0.42055990  0.04771563  0.24403464    -0.24300
N212        N  0.05641546  0.40932617  0.29275073    -0.45000
H213        H  0.46395227  0.39073726  0.22014538     0.08600
C214        C  0.04790829  0.10957349  0.22650310    -0.05100
Cl215      Cl  0.99839946  0.50950614  0.26254914    -0.48100
C216        C  0.08072715  0.10542350  0.30373881     0.44400
H217        H  0.36529695  0.03415121  0.23003408     0.08600
N218        N  0.09769538  0.06537764  0.22948241    -0.44900
O219        O  0.46286287  0.24937841  0.97045711    -0.78400
O220        O  0.03583964  0.30896479  0.03834360    -0.78400
O221        O  0.40816948  0.26695955  0.02899816    -0.78400
O222        O  0.05692093  0.27949513  0.99159259    -0.78300
O223        O  0.45434425  0.30876413  0.03746783    -0.78500
O224        O  0.02518340  0.24623097  0.97009827    -0.78400
O225        O  0.08204253  0.26722823  0.02865951    -0.78400
O226        O  0.43250517  0.28263378  0.99255122    -0.78400
C227        C  0.43987072  0.27701824  0.97494523     1.11300
C228        C  0.07179619  0.29827380  0.03759530     1.11200
C229        C  0.41851548  0.29848336  0.03712505     1.11400
C230        C  0.04847810  0.27343835  0.97414964     1.11200
O231        O  0.03679429  0.18014621  0.98768653    -0.78400
O232        O  0.45445150  0.23080274  0.05333479    -0.78400
O233        O  0.39696613  0.21159410  0.99858591    -0.78400
O234        O  0.04268372  0.19261287  0.02934945    -0.78400
O235        O  0.03542713  0.23201535  0.05411870    -0.78400
O236        O  0.45009848  0.18143983  0.98658431    -0.78400
O237        O  0.09173101  0.20834673  0.99877221    -0.78300
O238        O  0.44805639  0.19252947  0.02802132    -0.78400
Co239      Co  0.99369428  0.22155889  0.99086485     1.51500
Co240      Co  0.99483434  0.26970743  0.04426416     1.51700
Co241      Co  0.44205128  0.23739045  0.01001054     1.51600
Co242      Co  0.04787658  0.23614418  0.01030117     1.51500
O243        O  0.99509337  0.25566630  0.01600912    -1.40300
C244        C  0.07488209  0.18276692  0.98832606     1.11300
C245        C  0.44408801  0.19866196  0.04593614     1.11300
C246        C  0.41218841  0.18581681  0.98754324     1.11300
C247        C  0.04691213  0.19984886  0.04712032     1.11300
N248        N  0.30432435  0.35559919  0.87322401    -0.34800
N249        N  0.24398468  0.37797772  0.84498854    -0.55400
N250        N  0.18254011  0.35471292  0.87223076    -0.34800
N251        N  0.24275865  0.33599873  0.90110829    -0.55400
C252        C  0.32728644  0.37331578  0.85965771     0.28800
C253        C  0.32638559  0.35214148  0.88947575     0.28800
C254        C  0.15992533  0.37231379  0.85855689     0.28800
C255        C  0.15936993  0.35000912  0.88810982     0.28800
C256        C  0.27663785  0.38128690  0.83361070     0.37400
C257        C  0.21217222  0.38140843  0.83321218     0.37400
C258        C  0.27463380  0.32395248  0.91136283     0.37400
C259        C  0.21038142  0.32268070  0.91063735     0.37400
C260        C  0.36455181  0.38058234  0.86727067    -0.20100
C261        C  0.36396243  0.36728632  0.88608121    -0.20100
C262        C  0.12180074  0.37830657  0.86575165    -0.20100
C263        C  0.12144629  0.36423260  0.88440097    -0.20100
C264        C  0.26548604  0.38752985  0.81453988    -0.21200
C265        C  0.22466168  0.38764398  0.81429663    -0.21200
C266        C  0.26246166  0.30314201  0.92763558    -0.21200
C267        C  0.22169555  0.30229690  0.92716853    -0.21200
C268        C  0.31625311  0.38128681  0.84032418    -0.16500
C269        C  0.31429770  0.33389545  0.90693604    -0.16500
C270        C  0.17081620  0.33131048  0.90546026    -0.16500
C271        C  0.17208290  0.38112846  0.83944659    -0.16500
H272        H  0.38968066  0.39395348  0.86000829     0.16400
H273        H  0.38857280  0.36838497  0.89606377     0.16400
H274        H  0.09669627  0.39120988  0.85830384     0.16400
H275        H  0.09600063  0.36419097  0.89406168     0.16400
H276        H  0.28474241  0.39198882  0.80211924     0.14700
H277        H  0.20628641  0.39212428  0.80166572     0.14700
H278        H  0.28097103  0.29033817  0.93878779     0.14700
H279        H  0.20257920  0.28876413  0.93791980     0.14700
H280        H  0.27719840  0.34285395  0.87083213     0.27900
H281        H  0.21030067  0.34267663  0.87017733     0.27900
N282        N  0.23844258  0.12639982  0.90503017    -0.34800
N283        N  0.30129747  0.11832291  0.87661712    -0.55400
N284        N  0.24107252  0.10667345  0.84700288    -0.34800
N285        N  0.17801460  0.11790586  0.87561954    -0.55400
C286        C  0.27000210  0.13903660  0.91520685     0.28800
C287        C  0.20550667  0.13816047  0.91467826     0.28800
C288        C  0.27413382  0.10959917  0.83578915     0.28800
C289        C  0.20911413  0.11016450  0.83526150     0.28800
C290        C  0.32374099  0.11807748  0.89280484     0.37400
C291        C  0.32533026  0.10726770  0.86188529     0.37400
C292        C  0.15428684  0.11657393  0.89146964     0.37400
C293        C  0.15545547  0.10743039  0.86045710     0.37400
C294        C  0.25693717  0.15925155  0.93138998    -0.20100
C295        C  0.21627740  0.15870903  0.93106153    -0.20100
C296        C  0.26300885  0.11461760  0.81661925    -0.20100
C297        C  0.22207048  0.11502546  0.81629043    -0.20100
C298        C  0.36242769  0.10739870  0.88833059    -0.21200
C299        C  0.36347182  0.10054081  0.86873015    -0.21200
C300        C  0.11618298  0.10579297  0.88637532    -0.21200
C301        C  0.11686556  0.10007624  0.86667770    -0.21200
C302        C  0.31011300  0.12998468  0.91122636    -0.16500
C303        C  0.16622718  0.12777613  0.91013115    -0.16500
C304        C  0.16873186  0.10650220  0.84100429    -0.16500
C305        C  0.31394184  0.10557340  0.84222302    -0.16500
H306        H  0.27481324  0.17252977  0.94249189     0.16400
H307        H  0.19690892  0.17155156  0.94186547     0.16400
H308        H  0.28237602  0.11735443  0.80411962     0.16400
H309        H  0.20391876  0.11808082  0.80348714     0.16400
H310        H  0.38735575  0.10530602  0.89810764     0.14700
H311        H  0.38946190  0.09201304  0.86044160     0.14700
H312        H  0.09051726  0.10300218  0.89579519     0.14700
H313        H  0.09176746  0.09174881  0.85793333     0.14700
H314        H  0.23927128  0.10627577  0.89383235     0.27900
H315        H  0.24040519  0.09832271  0.86146987     0.27900
C316        C  0.40895966  0.40828269  0.71730814     0.44200
N317        N  0.42192108  0.45635379  0.73563617     0.03100
C318        C  0.09327418  0.06708028  0.73264796    -0.04800
H319        H  0.11470507  0.41400923  0.74388088     0.08600
C320        C  0.04607944  0.43070194  0.80800023    -0.05100
Co321      Co  0.49550463  0.49706821  0.72248433     0.74200
N322        N  0.06561943  0.45311451  0.73755426    -0.24300
Co323      Co  0.06604661  0.49678990  0.75856003     0.74100
C324        C  0.08436979  0.41422638  0.80193684     0.43300
N325        N  0.44601106  0.45673513  0.79271605     0.02700
N326        N  0.06412363  0.45529921  0.78051004     0.02800
N327        N  0.04631050  0.06536225  0.70929998    -0.45100
H328        H  0.46333998  0.41967590  0.69796237     0.08600
N329        N  0.03850175  0.45334542  0.72384122     0.03100
N330        N  0.06465541  0.03981047  0.77980499     0.02900
C331        C  0.08439691  0.08174308  0.80064535     0.44500
N332        N  0.41955504  0.45713632  0.77867816    -0.23700
C333        C  0.44798315  0.07032854  0.70943388    -0.04700
N334        N  0.39551631  0.42832976  0.73279476    -0.44800
N335        N  0.09428849  0.06349810  0.78403774    -0.45100
C336        C  0.41285170  0.09092511  0.71616967     0.44300
N337        N  0.04007058  0.03841730  0.72276489     0.03100
N338        N  0.41998002  0.04189047  0.77829796    -0.23800
N339        N  0.45100317  0.45578447  0.72275549    -0.24300
N340        N  0.44616697  0.04138795  0.79244422     0.02800
H341        H  0.36240787  0.06880063  0.77548898     0.08600
H342        H  0.03063372  0.06961115  0.82036848     0.08700
N343        N  0.06700067  0.03866178  0.73654623    -0.24300
N344        N  0.03579279  0.45576395  0.79380842    -0.23900
N345        N  0.42351035  0.04218734  0.73500262     0.03100
C346        C  0.07345999  0.40240610  0.71810071     0.44500
C347        C  0.39098100  0.43140139  0.78300764    -0.05200
N348        N  0.03593774  0.04064833  0.79292517    -0.23900
H349        H  0.03146226  0.42842178  0.82194899     0.08700
N350        N  0.04228635  0.42363452  0.71180770    -0.45100
H351        H  0.36315778  0.42873459  0.77539089     0.08700
C352        C  0.40066406  0.08161333  0.80196887     0.44400
C353        C  0.44520364  0.42643560  0.71048812    -0.04700
Co354      Co  0.42041892  0.49946763  0.75685004     0.73800
N355        N  0.43626454  0.43231012  0.80692674    -0.44900
C356        C  0.07913489  0.08450666  0.71466350     0.44600
N357        N  0.39872975  0.07194104  0.73197672    -0.44800
Co358      Co  0.49099407  0.49864261  0.79331054     0.73900
C359        C  0.04572694  0.06642143  0.80659552    -0.05200
C360        C  0.08946370  0.42188028  0.73503406    -0.04700
N361        N  0.45241503  0.04073020  0.72200417    -0.24300
N362        N  0.09369237  0.43130347  0.78491669    -0.45000
H363        H  0.11948651  0.07361847  0.74096910     0.08600
C364        C  0.39051653  0.06667379  0.78293983    -0.05100
Cl365      Cl  0.49321728  0.49805924  0.75785141    -0.48100
C366        C  0.40215868  0.41477907  0.80166304     0.44400
H367        H  0.46665681  0.07618924  0.69696093     0.08600
N368        N  0.43531614  0.06422323  0.80699628    -0.44900
N369        N  0.24728585  0.13330585  0.17678031    -0.34800
N370        N  0.18627076  0.13811535  0.14721964    -0.55400
N371        N  0.24711433  0.13856318  0.11722506    -0.34800
N372        N  0.30826801  0.13134281  0.14638206    -0.55400
C373        C  0.21434079  0.12467293  0.18740318     0.28800
C374        C  0.27940651  0.12110337  0.18698358     0.28800
C375        C  0.21431185  0.13302019  0.10639912     0.28800
C376        C  0.27903074  0.13046508  0.10592683     0.28800
C377        C  0.16327885  0.14353061  0.16308050     0.37400
C378        C  0.16331271  0.14664409  0.13176481     0.37400
C379        C  0.33194875  0.13368530  0.16204296     0.37400
C380        C  0.33171337  0.13779122  0.13072270     0.37400
C381        C  0.22577170  0.10748371  0.20475586    -0.20100
C382        C  0.26673068  0.10526335  0.20450136    -0.20100
C383        C  0.22553234  0.12140820  0.08794975    -0.20100
C384        C  0.26640632  0.11989311  0.08763776    -0.20100
C385        C  0.12552764  0.15564019  0.15768317    -0.21200
C386        C  0.12557843  0.15771035  0.13783710    -0.21200
C387        C  0.37072799  0.14131625  0.15629163    -0.21200
C388        C  0.37054766  0.14407995  0.13645207    -0.21200
C389        C  0.17442484  0.13305180  0.18206994    -0.16500
C390        C  0.31980588  0.12523126  0.18122433    -0.16500
C391        C  0.31912448  0.13503637  0.11132583    -0.16500
C392        C  0.17484661  0.14104909  0.11230348    -0.16500
H393        H  0.20660503  0.09754421  0.21640942     0.16400
H394        H  0.28507386  0.09326033  0.21592826     0.16400
H395        H  0.20629681  0.11529120  0.07586383     0.16400
H396        H  0.28475023  0.11229350  0.07528870     0.16400
H397        H  0.10028505  0.16136839  0.16704625     0.14700
H398        H  0.10039160  0.16540631  0.12889548     0.14700
H399        H  0.39657920  0.14393750  0.16541812     0.14700
H400        H  0.39622939  0.14921065  0.12728890     0.14700
H401        H  0.24804493  0.14980036  0.16409353     0.27900
H402        H  0.24785891  0.15183010  0.13068156     0.27900
N403        N  0.24909912  0.36415727  0.11757358    -0.34800
N404        N  0.31098000  0.38127173  0.14549565    -0.55400
N405        N  0.24976027  0.39857421  0.17361473    -0.34800
N406        N  0.18791296  0.37923266  0.14519919    -0.55400
C407        C  0.28170240  0.34891327  0.10904207     0.28800
C408        C  0.21738600  0.34842299  0.10870375     0.28800
C409        C  0.28231015  0.39786524  0.18519862     0.28800
C410        C  0.21699565  0.39677259  0.18512771     0.28800
C411        C  0.33329107  0.37948803  0.12922886     0.37400
C412        C  0.33428118  0.39629751  0.15936804     0.37400
C413        C  0.16510934  0.37727447  0.12916479     0.37400
C414        C  0.16488934  0.39433712  0.15934308     0.37400
C415        C  0.27063289  0.32264424  0.09485219    -0.20100
C416        C  0.22992753  0.32238589  0.09462909    -0.20100
C417        C  0.26993295  0.39633637  0.20436817    -0.20100
C418        C  0.22888029  0.39566486  0.20432983    -0.20100
C419        C  0.37117428  0.39327612  0.13270535    -0.21200
C420        C  0.37188887  0.40378406  0.15189708    -0.21200
C421        C  0.12719734  0.39096391  0.13309683    -0.21200
C422        C  0.12697066  0.40169827  0.15227579    -0.21200
C423        C  0.32064326  0.36203724  0.11198348    -0.16500
C424        C  0.17782754  0.36022632  0.11166225    -0.16500
C425        C  0.17677048  0.39859801  0.17881649    -0.16500
C426        C  0.32268138  0.40039310  0.17892554    -0.16500
H427        H  0.28987189  0.30624598  0.08523986     0.16400
H428        H  0.21168455  0.30571747  0.08487589     0.16400
H429        H  0.28852827  0.39600748  0.21708992     0.16400
H430        H  0.20992199  0.39478885  0.21703723     0.16400
H431        H  0.39592109  0.39455844  0.12264114     0.14700
H432        H  0.39727938  0.41513126  0.15952555     0.14700
H433        H  0.10222124  0.39226941  0.12332077     0.14700
H434        H  0.10164207  0.41315933  0.16016901     0.14700
H435        H  0.24869090  0.38837051  0.12659989     0.27900
H436        H  0.24958100  0.40398414  0.15881836     0.27900
C437        C  0.13914276  0.10091429  0.82607738    -0.11500
C438        C  0.11406934  0.09391349  0.81418855    -0.13100
C439        C  0.37097247  0.09267337  0.81606995    -0.11500
C440        C  0.34504505  0.09946616  0.82779920    -0.13100
C441        C  0.11473532  0.40077809  0.81493330    -0.11500
C442        C  0.14130326  0.39148738  0.82569682    -0.13100
C443        C  0.34757667  0.39151031  0.82673535    -0.11500
C444        C  0.37338640  0.40096826  0.81548856    -0.13100
C445        C  0.06918740  0.17394707  0.05940638    -0.16700
C446        C  0.09141609  0.15936162  0.07105605     0.07300
C447        C  0.11961436  0.14892020  0.08526313     0.09200
C448        C  0.14453149  0.14392326  0.09752182    -0.17600
C449        C  0.34884243  0.13768509  0.09607372    -0.16700
C450        C  0.37331052  0.14338755  0.08354971     0.07300
C451        C  0.40110043  0.15532957  0.06933667     0.09200
C452        C  0.42285439  0.17144056  0.05792528    -0.17600
C453        C  0.09923252  0.31804899  0.05000987    -0.16700
C454        C  0.11632696  0.33209181  0.06361648     0.07300
C455        C  0.13344300  0.34521927  0.08109419     0.09200
C456        C  0.15038501  0.35359298  0.09587449    -0.17600
C457        C  0.39166347  0.31943847  0.04919067    -0.16700
C458        C  0.37675841  0.33486172  0.06298185     0.07300
C459        C  0.36316377  0.34875976  0.08088130     0.09200
C460        C  0.34785930  0.35676131  0.09608028    -0.17600
C461        C  0.06757816  0.29441198  0.95895733    -0.16700
C462        C  0.08747946  0.30614497  0.94574715     0.07300
C463        C  0.11462388  0.31532938  0.93102325     0.09200
C464        C  0.13992235  0.32216419  0.91921904    -0.17600
C465        C  0.34435777  0.32620948  0.92139079    -0.16700
C466        C  0.36942720  0.31988913  0.93338883     0.07300
C467        C  0.39757466  0.31052579  0.94771657     0.09200
C468        C  0.41915517  0.29839962  0.96024086    -0.17600
C469        C  0.13767302  0.12987828  0.92584955    -0.16700
C470        C  0.12176065  0.13479151  0.94132439     0.07300
C471        C  0.10911027  0.14533880  0.96008880     0.09200
C472        C  0.09701918  0.15940982  0.97494613    -0.17600
C473        C  0.38823881  0.16435648  0.97413101    -0.16700
C474        C  0.37258943  0.15125217  0.95988035     0.07300
C475        C  0.35547445  0.14048924  0.94199251     0.09200
C476        C  0.33788731  0.13435737  0.92710965    -0.17600
C477        C  0.35401560  0.40677864  0.19315572    -0.11500
C478        C  0.38002921  0.41405014  0.20469004    -0.13100
C479        C  0.11945518  0.41552639  0.20412793    -0.11500
C480        C  0.14557097  0.40584139  0.19303167    -0.13100
C481        C  0.37596226  0.10649804  0.20671048    -0.11500
C482        C  0.35077919  0.11701796  0.19534780    -0.13100
C483        C  0.11517710  0.11671356  0.20658946    -0.11500
C484        C  0.14238292  0.12642126  0.19604556    -0.13100
C485        C  0.10745712  0.14056378  0.69253102    -0.11500
C486        C  0.09696209  0.11477033  0.70327498    -0.13100
C487        C  0.08913575  0.36910684  0.70800922    -0.11500
C488        C  0.09954205  0.34272839  0.69761744    -0.13100
C489        C  0.39460396  0.12370599  0.70653442    -0.11500
C490        C  0.38405516  0.15048037  0.69627699    -0.13100
C491        C  0.37735080  0.35322361  0.69645884    -0.11500
C492        C  0.38819648  0.37839543  0.70723896    -0.13100
C493        C  0.31682816  0.08131865  0.56347276    -0.16700
C494        C  0.33580638  0.10279024  0.57334724     0.07300
C495        C  0.35170462  0.13025936  0.58595579     0.09200
C496        C  0.35982889  0.15457223  0.59764532    -0.17600
C497        C  0.36330167  0.35592792  0.59696441    -0.16700
C498        C  0.35929041  0.37995826  0.58415463     0.07300
C499        C  0.34997620  0.40645395  0.56890960     0.09200
C500        C  0.33598718  0.42625812  0.55603271    -0.17600
C501        C  0.13785341  0.15278394  0.59412250    -0.16700
C502        C  0.14329504  0.13032897  0.58093053     0.07300
C503        C  0.15296264  0.10437076  0.56570956     0.09200
C504        C  0.16643230  0.08333072  0.55329245    -0.17600
C505        C  0.17705083  0.41927493  0.56127548    -0.16700
C506        C  0.15864898  0.40104323  0.57323743     0.07300
C507        C  0.14248291  0.37633638  0.58757025     0.09200
C508        C  0.13353410  0.35264411  0.59975618    -0.17600
C509        C  0.11450271  0.15989531  0.32508665    -0.11500
C510        C  0.10260521  0.13350225  0.31502769    -0.13100
C511        C  0.12028738  0.36538229  0.32550415    -0.11500
C512        C  0.10918351  0.39180411  0.31511320    -0.13100
C513        C  0.14767929  0.16128983  0.42324068    -0.16700
C514        C  0.15817961  0.13737407  0.43495167     0.07300
C515        C  0.17530438  0.11065249  0.44795084     0.09200
C516        C  0.19315535  0.08901967  0.45854831    -0.17600
C517        C  0.16428262  0.43206018  0.46571998    -0.16700
C518        C  0.15145874  0.41262076  0.45259653     0.07300
C519        C  0.14300229  0.38636946  0.43732676     0.09200
C520        C  0.13925722  0.36259578  0.42455612    -0.17600
C521        C  0.39554878  0.12240984  0.32096825    -0.11500
C522        C  0.38620660  0.14850169  0.33186797    -0.13100
C523        C  0.39335377  0.35427920  0.32855142    -0.11500
C524        C  0.40325451  0.38116089  0.31796185    -0.13100
C525        C  0.36261042  0.15470346  0.43131814    -0.16700
C526        C  0.35673060  0.13248559  0.44481057     0.07300
C527        C  0.34688094  0.10697373  0.46050606     0.09200
C528        C  0.33373763  0.08587710  0.47319038    -0.17600
C529        C  0.36813625  0.35435365  0.42730054    -0.16700
C530        C  0.35909041  0.37748130  0.43952582     0.07300
C531        C  0.34231046  0.40194857  0.45353716     0.09200
C532        C  0.32285565  0.42010190  0.46496320    -0.17600
N533        N  0.37833958  0.75236543  0.34915986    -0.34800
N534        N  0.37363135  0.69268470  0.38040744    -0.55400
N535        N  0.37099073  0.75371724  0.40863560    -0.34800
N536        N  0.37872939  0.81320003  0.37794462    -0.55400
C537        C  0.38749856  0.71930945  0.33932227     0.28800
C538        C  0.38976743  0.78349139  0.33809714     0.28800
C539        C  0.37528666  0.72235417  0.42054148     0.28800
C540        C  0.37815266  0.78591219  0.41920361     0.28800
C541        C  0.36967589  0.66948468  0.36480889     0.37400
C542        C  0.36475373  0.67050190  0.39618104     0.37400
C543        C  0.37615282  0.83607473  0.36195415     0.37400
C544        C  0.37101938  0.83657276  0.39318062     0.37400
C545        C  0.40418127  0.72964110  0.32157677    -0.20100
C546        C  0.40559432  0.76998492  0.32081766    -0.20100
C547        C  0.38526019  0.73485282  0.43891765    -0.20100
C548        C  0.38702438  0.77497489  0.43808377    -0.20100
C549        C  0.35852058  0.63222335  0.37073915    -0.21200
C550        C  0.35531099  0.63292173  0.39058467    -0.21200
C551        C  0.36721463  0.87424693  0.36708143    -0.21200
C552        C  0.36376655  0.87453358  0.38686417    -0.21200
C553        C  0.37985486  0.68020541  0.34557038    -0.16500
C554        C  0.38518702  0.82366407  0.34300219    -0.16500
C555        C  0.37323800  0.82485985  0.41275453    -0.16500
C556        C  0.36767285  0.68311287  0.41558350    -0.16500
H557        H  0.41433164  0.71013164  0.31029823     0.16400
H558        H  0.41705615  0.78737458  0.30889981     0.16400
H559        H  0.39008969  0.71698377  0.45169148     0.16400
H560        H  0.39336954  0.79398449  0.45011474     0.16400
H561        H  0.35384187  0.60694659  0.36172406     0.14700
H562        H  0.34766149  0.60839375  0.39984407     0.14700
H563        H  0.36399083  0.89936312  0.35758563     0.14700
H564        H  0.35745569  0.89996434  0.39561177     0.14700
H565        H  0.36193408  0.75348644  0.36191912     0.27900
H566        H  0.35871149  0.75372867  0.39490567     0.27900
N567        N  0.13845823  0.76193140  0.40361615    -0.34800
N568        N  0.13350232  0.82236541  0.37437083    -0.55400
N569        N  0.13103376  0.76206967  0.34395620    -0.34800
N570        N  0.13191764  0.70167362  0.37374273    -0.55400
C571        C  0.13390399  0.79340102  0.41525690     0.28800
C572        C  0.13512549  0.72963227  0.41487997     0.28800
C573        C  0.12233827  0.79469878  0.33347507     0.28800
C574        C  0.12042179  0.73055601  0.33328851     0.28800
C575        C  0.13965511  0.84543000  0.38990604     0.37400
C576        C  0.13647061  0.84560071  0.35853743     0.37400
C577        C  0.13999565  0.67848043  0.38914806     0.37400
C578        C  0.13299033  0.67840002  0.35801340     0.37400
C579        C  0.12793146  0.78080786  0.43418271    -0.20100
C580        C  0.12885694  0.74060891  0.43395920    -0.20100
C581        C  0.10732373  0.78369793  0.31566919    -0.20100
C582        C  0.10607268  0.74338649  0.31557021    -0.20100
C583        C  0.14635391  0.88356713  0.38390729    -0.21200
C584        C  0.14436070  0.88369872  0.36407832    -0.21200
C585        C  0.14579490  0.64020221  0.38318416    -0.21200
C586        C  0.14111134  0.64012515  0.36349637    -0.21200
C587        C  0.13736965  0.83305263  0.40946719    -0.16500
C588        C  0.14019559  0.69067343  0.40863670    -0.16500
C589        C  0.12398803  0.69058538  0.33896310    -0.16500
C590        C  0.12804746  0.83407826  0.33937463    -0.16500
H591        H  0.12395197  0.79869499  0.44690759     0.16400
H592        H  0.12563805  0.72162838  0.44647154     0.16400
H593        H  0.09787105  0.80274566  0.30397682     0.16400
H594        H  0.09553755  0.72557725  0.30380576     0.16400
H595        H  0.15162157  0.90878580  0.39288104     0.14700
H596        H  0.14758271  0.90916062  0.35481423     0.14700
H597        H  0.15211814  0.61480735  0.39210926     0.14700
H598        H  0.14327805  0.61474140  0.35428488     0.14700
H599        H  0.14777852  0.76216963  0.38947328     0.27900
H600        H  0.14606956  0.76149471  0.35686168     0.27900
O601        O  0.29451656  0.92710828  0.49528279    -0.78400
O602        O  0.28843005  0.56462168  0.53390711    -0.78400
O603        O  0.30305630  0.52792905  0.48511469    -0.78400
O604        O  0.30817683  0.97983174  0.53899698    -0.78300
O605        O  0.28647963  0.58256651  0.49785055    -0.78500
O606        O  0.28394594  0.92119774  0.53459938    -0.78400
O607        O  0.26959288  0.53229764  0.56082150    -0.78400
O608        O  0.27106199  0.96325778  0.47110030    -0.78400
C609        C  0.29532947  0.93821429  0.47780118     1.11300
C610        C  0.29028052  0.55851260  0.55240804     1.11200
C611        C  0.30848641  0.56435503  0.48647678     1.11400
C612        C  0.30956274  0.94333061  0.54195007     1.11200
O613        O  0.20059407  0.92869332  0.52988168    -0.78400
O614        O  0.21446655  0.56891766  0.48934552    -0.78400
O615        O  0.19281393  0.98479302  0.48253201    -0.78400
O616        O  0.19911954  0.52649553  0.54209650    -0.78400
O617        O  0.21143629  0.58104971  0.52775089    -0.78400
O618        O  0.21094054  0.92440294  0.48983716    -0.78400
O619        O  0.23009462  0.96034794  0.55372069    -0.78300
O620        O  0.23719235  0.53723770  0.46319657    -0.78400
Co621      Co  0.24731681  0.92913611  0.51233462     1.51500
Co622      Co  0.24879855  0.55011653  0.51242338     1.51700
Co623      Co  0.24684000  0.50719396  0.48570429     1.51600
Co624      Co  0.25444751  0.50450311  0.53868059     1.51500
O625        O  0.24762106  0.48846503  0.51225772    -1.40300
C626        C  0.20322470  0.93757098  0.54761011     1.11300
C627        C  0.21625693  0.56422198  0.47075738     1.11300
C628        C  0.18919187  0.94818353  0.48057180     1.11300
C629        C  0.19194965  0.56252460  0.54009524     1.11300
N630        N  0.36948771  0.75224439  0.67710949    -0.34800
N631        N  0.36764443  0.81359066  0.64702135    -0.55400
N632        N  0.36397659  0.75454574  0.61759766    -0.34800
N633        N  0.36948926  0.69329340  0.64738641    -0.55400
C634        C  0.37842693  0.78416186  0.68759908     0.28800
C635        C  0.38055265  0.72047013  0.68764835     0.28800
C636        C  0.36968732  0.78645692  0.60620833     0.28800
C637        C  0.36932128  0.72273090  0.60641457     0.28800
C638        C  0.36330523  0.83596451  0.66292373     0.37400
C639        C  0.36137761  0.83728824  0.63154560     0.37400
C640        C  0.36752555  0.66952459  0.66307140     0.37400
C641        C  0.36240760  0.67070359  0.63188132     0.37400
C642        C  0.39453115  0.77251136  0.70519030    -0.20100
C643        C  0.39589761  0.73234744  0.70520494    -0.20100
C644        C  0.37830111  0.77466899  0.58746970    -0.20100
C645        C  0.37794642  0.73446630  0.58758459    -0.20100
C646        C  0.35455570  0.87418915  0.65751140    -0.21200
C647        C  0.35332826  0.87501003  0.63764631    -0.21200
C648        C  0.35968138  0.63151837  0.65750031    -0.21200
C649        C  0.35620722  0.63228237  0.63774111    -0.21200
C650        C  0.37126058  0.82343703  0.68206087    -0.16500
C651        C  0.37601520  0.68107013  0.68213056    -0.16500
C652        C  0.36427982  0.68353217  0.61244279    -0.16500
C653        C  0.36501104  0.82581017  0.61199819    -0.16500
H654        H  0.40439487  0.79101557  0.71683079     0.16400
H655        H  0.40696764  0.71400396  0.71683337     0.16400
H656        H  0.38381290  0.79309953  0.57494578     0.16400
H657        H  0.38318955  0.71598328  0.57517136     0.16400
H658        H  0.35029404  0.89908108  0.66689067     0.14700
H659        H  0.34770618  0.90056394  0.62872189     0.14700
H660        H  0.35721577  0.60585234  0.66668233     0.14700
H661        H  0.35062382  0.60722252  0.62870551     0.14700
H662        H  0.35330694  0.75226693  0.66436834     0.27900
H663        H  0.35255334  0.75425740  0.63156093     0.27900
N664        N  0.11676271  0.74388893  0.67623977    -0.34800
N665        N  0.12005738  0.80690723  0.64829158    -0.55400
N666        N  0.13034146  0.75047022  0.61736550    -0.34800
N667        N  0.12527045  0.68732917  0.64488231    -0.55400
C668        C  0.10287845  0.77401983  0.68699267     0.28800
C669        C  0.10529971  0.71050658  0.68517918     0.28800
C670        C  0.12301213  0.78347134  0.60709953     0.28800
C671        C  0.12575086  0.71998530  0.60522821     0.28800
C672        C  0.12182530  0.82790705  0.66471826     0.37400
C673        C  0.12973310  0.83152674  0.63368137     0.37400
C674        C  0.12790310  0.66288647  0.66024424     0.37400
C675        C  0.13566273  0.66636032  0.62912146     0.37400
C676        C  0.08282907  0.75964092  0.70309613    -0.20100
C677        C  0.08433158  0.71951757  0.70195698    -0.20100
C678        C  0.11377311  0.77392142  0.58818331    -0.20100
C679        C  0.11549173  0.73381338  0.58700399    -0.20100
C680        C  0.13252269  0.86614773  0.66054058    -0.21200
C681        C  0.13767631  0.86841753  0.64083537    -0.21200
C682        C  0.13995770  0.62604936  0.65422800    -0.21200
C683        C  0.14497398  0.62828721  0.63448305    -0.21200
C684        C  0.10946131  0.81399850  0.68299903    -0.16500
C685        C  0.11503779  0.67226572  0.67912634    -0.16500
C686        C  0.13322365  0.68036499  0.60989513    -0.16500
C687        C  0.12806681  0.82187466  0.61392600    -0.16500
H688        H  0.06868681  0.77630542  0.71450108     0.16400
H689        H  0.07154079  0.69929870  0.71235673     0.16400
H690        H  0.10715257  0.79383081  0.57637173     0.16400
H691        H  0.11035228  0.71681633  0.57412139     0.16400
H692        H  0.13540663  0.89008206  0.67058148     0.14700
H693        H  0.14533636  0.89446715  0.63267198     0.14700
H694        H  0.14367696  0.60004258  0.66306960     0.14700
H695        H  0.15339042  0.60439010  0.62510583     0.14700
H696        H  0.13640581  0.74584769  0.66459677     0.27900
H697        H  0.14286223  0.74925825  0.63106163     0.27900
C698        C  0.41404627  0.59580122  0.30749945     0.44200
N699        N  0.45097633  0.57812997  0.28380032     0.03100
C700        C  0.44645574  0.91514356  0.22537703    -0.04800
H701        H  0.47716399  0.87650180  0.29491018     0.08600
C702        C  0.10018143  0.95859631  0.29641250    -0.05100
Co703      Co  0.42559084  0.00409213  0.26507816     0.74200
N704        N  0.46188494  0.93245729  0.28245306    -0.24300
Co705      Co  0.00362914  0.93810859  0.26039023     0.74100
C706        C  0.08849257  0.91935997  0.30289912     0.44300
N707        N  0.06717985  0.55951621  0.28369623     0.02700
N708        N  0.04818239  0.93903985  0.28109578     0.02800
N709        N  0.39643963  0.95800455  0.23105346    -0.45100
H710        H  0.37526935  0.54056404  0.30503489     0.08600
N711        N  0.43220576  0.95728643  0.28523334     0.03100
N712        N  0.04818523  0.94470568  0.23914926     0.02900
C713        C  0.09247027  0.93486126  0.21722231     0.44500
N714        N  0.03732025  0.58463335  0.28243351    -0.23700
C715        C  0.39139825  0.55225065  0.23118172    -0.04700
N716        N  0.44474875  0.60662028  0.29627073    -0.44800
N717        N  0.05885333  0.91998807  0.22524340    -0.45100
C718        C  0.40172200  0.58723285  0.22044849     0.44300
N719        N  0.42609517  0.96286487  0.24323307     0.03100
N720        N  0.03840850  0.58299552  0.24034689    -0.23800
N721        N  0.42621223  0.54850047  0.28608727    -0.24300
N722        N  0.06838745  0.55803787  0.24173976     0.02800
H723        H  0.03118172  0.63578712  0.22312007     0.08600
H724        H  0.12881536  0.98773674  0.22646677     0.08700
N725        N  0.45617067  0.93853251  0.24031313    -0.24300
N726        N  0.07301065  0.96861804  0.28296627    -0.23900
N727        N  0.44661615  0.57618477  0.24173152     0.03100
C728        C  0.42243243  0.91003321  0.30557819     0.44500
C729        C  0.04310122  0.61408428  0.29467050    -0.05200
N730        N  0.07396746  0.97340774  0.24101309    -0.23900
H731        H  0.12646882  0.97508814  0.29990646     0.08700
N732        N  0.40694499  0.94430017  0.29876704    -0.45100
H733        H  0.02498544  0.64022284  0.29565580     0.08700
C734        C  0.08720003  0.59711743  0.21924125     0.44400
C735        C  0.40105125  0.55733499  0.30073935    -0.04700
Co736      Co  0.99314812  0.58104117  0.26173774     0.73800
N737        N  0.09473942  0.57155474  0.29604255    -0.44900
C738        C  0.40675485  0.92865691  0.21927915     0.44600
N739        N  0.43593783  0.60127646  0.22786951    -0.44800
Co740      Co  0.07113690  0.01480859  0.26273459     0.73900
C741        C  0.10259520  0.96971893  0.22769364    -0.05200
C742        C  0.45841475  0.90228669  0.29473604    -0.04700
N743        N  0.42056895  0.54770015  0.24405241    -0.24300
N744        N  0.05636537  0.90931806  0.29274468    -0.45000
H745        H  0.46391146  0.89074370  0.22013278     0.08600
C746        C  0.04789741  0.60954185  0.22648883    -0.05100
Cl747      Cl  0.99836810  0.00950899  0.26253964    -0.48100
C748        C  0.08073645  0.60542746  0.30374924     0.44400
H749        H  0.36529242  0.53413012  0.23006528     0.08600
N750        N  0.09769556  0.56536018  0.22947334    -0.44900
O751        O  0.46289615  0.74936348  0.97044038    -0.78400
O752        O  0.03584383  0.80900929  0.03831931    -0.78400
O753        O  0.40817661  0.76699625  0.02897971    -0.78400
O754        O  0.05694388  0.77951408  0.99158047    -0.78300
O755        O  0.45435046  0.80880654  0.03744366    -0.78500
O756        O  0.02521928  0.74623266  0.97008864    -0.78400
O757        O  0.08205031  0.76726454  0.02865018    -0.78400
O758        O  0.43252113  0.78262945  0.99252592    -0.78400
C759        C  0.43989365  0.77699987  0.97492141     1.11300
C760        C  0.07180000  0.79831733  0.03757793     1.11200
C761        C  0.41852238  0.79852271  0.03710559     1.11400
C762        C  0.04850736  0.77344728  0.97413768     1.11200
O763        O  0.03683023  0.68015467  0.98768997    -0.78400
O764        O  0.45445702  0.73085919  0.05332695    -0.78400
O765        O  0.39698957  0.71159371  0.99857466    -0.78400
O766        O  0.04269126  0.69265125  0.02934668    -0.78400
O767        O  0.03543279  0.73206873  0.05410990    -0.78400
O768        O  0.45013112  0.68144361  0.98657811    -0.78400
O769        O  0.09175694  0.70837170  0.99877623    -0.78300
O770        O  0.44806538  0.69256313  0.02802194    -0.78400
Co771      Co  0.99372491  0.72156697  0.99085629     1.51500
Co772      Co  0.99484060  0.76975556  0.04424787     1.51700
Co773      Co  0.44206485  0.73740677  0.00999903     1.51600
Co774      Co  0.04789238  0.73617168  0.01029362     1.51500
O775        O  0.99510464  0.75569272  0.01599510    -1.40300
C776        C  0.07491742  0.68277852  0.98833493     1.11300
C777        C  0.44409664  0.69871067  0.04593563     1.11300
C778        C  0.41221978  0.68581672  0.98753385     1.11300
C779        C  0.04691985  0.69989824  0.04711626     1.11300
N780        N  0.30432758  0.85558992  0.87320907    -0.34800
N781        N  0.24401573  0.87795513  0.84496357    -0.55400
N782        N  0.18256314  0.85472718  0.87220568    -0.34800
N783        N  0.24275496  0.83602722  0.90109230    -0.55400
C784        C  0.32729902  0.87331964  0.85964691     0.28800
C785        C  0.32638120  0.85216320  0.88946768     0.28800
C786        C  0.15994711  0.87231361  0.85852409     0.28800
C787        C  0.15937195  0.85003152  0.88808157     0.28800
C788        C  0.27667444  0.88123124  0.83358764     0.37400
C789        C  0.21220967  0.88136512  0.83318228     0.37400
C790        C  0.27462445  0.82396503  0.91134642     0.37400
C791        C  0.21037210  0.82271106  0.91061734     0.37400
C792        C  0.36454666  0.88062569  0.86726940    -0.20100
C793        C  0.36394668  0.86734011  0.88608190    -0.20100
C794        C  0.12181528  0.87830061  0.86571016    -0.20100
C795        C  0.12144831  0.86424009  0.88436209    -0.20100
C796        C  0.26553370  0.88742933  0.81451195    -0.21200
C797        C  0.22470903  0.88755247  0.81426443    -0.21200
C798        C  0.26244359  0.80314777  0.92761533    -0.21200
C799        C  0.22167714  0.80231514  0.92714637    -0.21200
C800        C  0.31628368  0.88125367  0.84030785    -0.16500
C801        C  0.31429098  0.83390313  0.90692337    -0.16500
C802        C  0.17080952  0.83134432  0.90543633    -0.16500
C803        C  0.17211787  0.88110686  0.83941334    -0.16500
H804        H  0.38967163  0.89401285  0.86001150     0.16400
H805        H  0.38854324  0.86846494  0.89607138     0.16400
H806        H  0.09671236  0.89118661  0.85825431     0.16400
H807        H  0.09599359  0.86419418  0.89401684     0.16400
H808        H  0.28479745  0.89185528  0.80209115     0.14700
H809        H  0.20634010  0.89200560  0.80162913     0.14700
H810        H  0.28094748  0.79033143  0.93876626     0.14700
H811        H  0.20255480  0.78877852  0.93789390     0.14700
H812        H  0.27726185  0.84283146  0.87081445     0.27900
H813        H  0.21028228  0.84271650  0.87016341     0.27900
N814        N  0.23846443  0.62644194  0.90502646    -0.34800
N815        N  0.30129601  0.61835623  0.87660616    -0.55400
N816        N  0.24104689  0.60670544  0.84700231    -0.34800
N817        N  0.17801128  0.61794133  0.87562794    -0.55400
C818        C  0.27003053  0.63908835  0.91519516     0.28800
C819        C  0.20553531  0.63820943  0.91467733     0.28800
C820        C  0.27410091  0.60962672  0.83578338     0.28800
C821        C  0.20908058  0.61019541  0.83526599     0.28800
C822        C  0.32374924  0.61810245  0.89279074     0.37400
C823        C  0.32531397  0.60728602  0.86187171     0.37400
C824        C  0.15430000  0.61659957  0.89148359     0.37400
C825        C  0.15544126  0.60745869  0.86047058     0.37400
C826        C  0.25697678  0.65932108  0.93137483    -0.20100
C827        C  0.21631608  0.65877635  0.93105328    -0.20100
C828        C  0.26296344  0.61464241  0.81661505    -0.20100
C829        C  0.22202462  0.61505254  0.81629269    -0.20100
C830        C  0.36242763  0.60740287  0.88831195    -0.21200
C831        C  0.36345637  0.60054102  0.86871165    -0.21200
C832        C  0.11619486  0.60580568  0.88639803    -0.21200
C833        C  0.11685981  0.60009171  0.86669987    -0.21200
C834        C  0.31013650  0.63002095  0.91121287    -0.16500
C835        C  0.16625595  0.62780607  0.91014200    -0.16500
C836        C  0.16870222  0.60653095  0.84101525    -0.16500
C837        C  0.31391255  0.60559509  0.84221131    -0.16500
H838        H  0.27486115  0.67260874  0.94247079     0.16400
H839        H  0.19695326  0.67162600  0.94185759     0.16400
H840        H  0.28232260  0.61737398  0.80411221     0.16400
H841        H  0.20386451  0.61810487  0.80349207     0.16400
H842        H  0.38736016  0.60529909  0.89808578     0.14700
H843        H  0.38943702  0.59199793  0.86041997     0.14700
H844        H  0.09053957  0.60300512  0.89582396     0.14700
H845        H  0.09175659  0.59175558  0.85796105     0.14700
H846        H  0.23928493  0.60630239  0.89383457     0.27900
H847        H  0.24038963  0.59835628  0.86147020     0.27900
C848        C  0.40894054  0.90830995  0.71729291     0.44200
N849        N  0.42191963  0.95636203  0.73563008     0.03100
C850        C  0.09328669  0.56706729  0.73264779    -0.04800
H851        H  0.11470603  0.91401358  0.74386662     0.08600
C852        C  0.04611014  0.93067962  0.80798294    -0.05100
Co853      Co  0.49550065  0.99707638  0.72247802     0.74200
N854        N  0.06562074  0.95311957  0.73754121    -0.24300
Co855      Co  0.06605355  0.99678671  0.75854895     0.74100
C856        C  0.08439528  0.91420321  0.80191108     0.43300
N857        N  0.44603381  0.95672251  0.79270885     0.02700
N858        N  0.06413860  0.95528879  0.78049348     0.02800
N859        N  0.04633157  0.56533896  0.70929643    -0.45100
H860        H  0.46332026  0.91970384  0.69794658     0.08600
N861        N  0.03849984  0.95335164  0.72382980     0.03100
N862        N  0.06463876  0.53982113  0.77981364     0.02900
C863        C  0.08437030  0.58175632  0.80065556     0.44500
N864        N  0.41957306  0.95712970  0.77867305    -0.23700
C865        C  0.44801012  0.57033326  0.70944359    -0.04700
N866        N  0.39550665  0.92834730  0.73278459    -0.44800
N867        N  0.09427035  0.56350858  0.78404957    -0.45100
C868        C  0.41288973  0.59094206  0.71618244     0.44300
N869        N  0.04007825  0.53840891  0.72276783     0.03100
N870        N  0.41996205  0.54189571  0.77829492    -0.23800
N871        N  0.45099885  0.95579465  0.72274777    -0.24300
N872        N  0.44614388  0.54140014  0.79244322     0.02800
H873        H  0.36238960  0.56880106  0.77547773     0.08600
H874        H  0.03059741  0.56962787  0.82037244     0.08700
N875        N  0.06700379  0.53865883  0.73655138    -0.24300
N876        N  0.03581568  0.95574937  0.79379568    -0.23900
N877        N  0.42351393  0.54218133  0.73500388     0.03100
C878        C  0.07345725  0.90241156  0.71808834     0.44500
C879        C  0.39100595  0.93138579  0.78299986    -0.05200
N880        N  0.03591469  0.54066183  0.79293066    -0.23900
H881        H  0.03150165  0.92839276  0.82193358     0.08700
N882        N  0.04228198  0.92364002  0.71179624    -0.45100
H883        H  0.36318216  0.92871700  0.77538379     0.08700
C884        C  0.40063486  0.58162663  0.80195957     0.44400
C885        C  0.44518912  0.92645716  0.71047497    -0.04700
Co886      Co  0.42042675  0.99946901  0.75684836     0.73800
N887        N  0.43629712  0.93228449  0.80691561    -0.44900
C888        C  0.07916108  0.58447997  0.71465680     0.44600
N889        N  0.39875120  0.57195130  0.73198366    -0.44800
Co890      Co  0.49101653  0.99862936  0.79330488     0.73900
C891        C  0.04569714  0.56643680  0.80660123    -0.05200
C892        C  0.08946407  0.92188550  0.73502038    -0.04700
N893        N  0.45242209  0.54072171  0.72200742    -0.24300
N894        N  0.09370757  0.93128794  0.78489193    -0.45000
H895        H  0.11949909  0.57360532  0.74096890     0.08600
C896        C  0.39049552  0.56667920  0.78293133    -0.05100
Cl897      Cl  0.49322499  0.99805782  0.75784518    -0.48100
C898        C  0.40219303  0.91475102  0.80165125     0.44400
H899        H  0.46669581  0.57620144  0.69697579     0.08600
N900        N  0.43528593  0.56424036  0.80699214    -0.44900
N901        N  0.24727931  0.63329328  0.17677745    -0.34800
N902        N  0.18629020  0.63814942  0.14720677    -0.55400
N903        N  0.24715151  0.63859214  0.11722403    -0.34800
N904        N  0.30828192  0.63133961  0.14639073    -0.55400
C905        C  0.21432400  0.62463639  0.18738840     0.28800
C906        C  0.27939058  0.62106916  0.18698211     0.28800
C907        C  0.21435391  0.63305610  0.10639336     0.28800
C908        C  0.27907213  0.63047107  0.10593254     0.28800
C909        C  0.16328941  0.64355622  0.16306513     0.37400
C910        C  0.16334915  0.64671046  0.13175036     0.37400
C911        C  0.33194896  0.63368861  0.16205648     0.37400
C912        C  0.33173642  0.63780209  0.13073590     0.37400
C913        C  0.22573878  0.60740724  0.20473406    -0.20100
C914        C  0.26669844  0.60518956  0.20448820    -0.20100
C915        C  0.22558137  0.62142279  0.08794842    -0.20100
C916        C  0.26645558  0.61988816  0.08764371    -0.20100
C917        C  0.12555040  0.65569775  0.15766501    -0.21200
C918        C  0.12561793  0.65779513  0.13781924    -0.21200
C919        C  0.37072844  0.64134055  0.15631291    -0.21200
C920        C  0.37056266  0.64410824  0.13647299    -0.21200
C921        C  0.17441354  0.63303336  0.18205164    -0.16500
C922        C  0.31979489  0.62521293  0.18123407    -0.16500
C923        C  0.31916289  0.63504252  0.11133663    -0.16500
C924        C  0.17488968  0.64111067  0.11229052    -0.16500
H925        H  0.20656101  0.59744097  0.21637764     0.16400
H926        H  0.28503132  0.59316121  0.21591265     0.16400
H927        H  0.20635075  0.61530522  0.07586072     0.16400
H928        H  0.28480519  0.61227123  0.07529930     0.16400
H929        H  0.10030381  0.66142557  0.16702560     0.14700
H930        H  0.10044183  0.66551448  0.12887519     0.14700
H931        H  0.39657076  0.64397049  0.16544467     0.14700
H932        H  0.39624876  0.64925253  0.12731465     0.14700
H933        H  0.24805096  0.64981469  0.16410050     0.27900
H934        H  0.24789296  0.65187032  0.13067675     0.27900
N935        N  0.24907974  0.86420716  0.11755393    -0.34800
N936        N  0.31095078  0.88129416  0.14548044    -0.55400
N937        N  0.24972082  0.89854162  0.17361008    -0.34800
N938        N  0.18788264  0.87922288  0.14519233    -0.55400
C939        C  0.28168545  0.84899177  0.10901108     0.28800
C940        C  0.21736841  0.84848107  0.10867932     0.28800
C941        C  0.28227236  0.89783449  0.18519224     0.28800
C942        C  0.21695779  0.89673139  0.18512398     0.28800
C943        C  0.33326518  0.87954000  0.12921322     0.37400
C944        C  0.33424311  0.89631374  0.15935826     0.37400
C945        C  0.16508242  0.87728108  0.12915641     0.37400
C946        C  0.16485317  0.89430822  0.15933954     0.37400
C947        C  0.27061864  0.82275139  0.09480776    -0.20100
C948        C  0.22991386  0.82248014  0.09458883    -0.20100
C949        C  0.26989802  0.89629373  0.20436228    -0.20100
C950        C  0.22884508  0.89561614  0.20432555    -0.20100
C951        C  0.37114111  0.89334031  0.13269518    -0.21200
C952        C  0.37184764  0.90382689  0.15188993    -0.21200
C953        C  0.12716706  0.89095904  0.13309103    -0.21200
C954        C  0.12693478  0.90167150  0.15227279    -0.21200
C955        C  0.32062674  0.86210933  0.11196049    -0.16500
C956        C  0.17780574  0.86026221  0.11164780    -0.16500
C957        C  0.17673219  0.89856043  0.17881380    -0.16500
C958        C  0.32264131  0.90038384  0.17891745    -0.16500
H959        H  0.28985787  0.80637819  0.08518511     0.16400
H960        H  0.21167347  0.80582631  0.08482838     0.16400
H961        H  0.28849529  0.89596516  0.21708335     0.16400
H962        H  0.20988845  0.89473385  0.21703345     0.16400
H963        H  0.39588779  0.89464851  0.12263172     0.14700
H964        H  0.39723139  0.91517891  0.15952191     0.14700
H965        H  0.10219317  0.89227480  0.12331390     0.14700
H966        H  0.10160351  0.91312237  0.16016760     0.14700
H967        H  0.24866474  0.88839842  0.12659462     0.27900
H968        H  0.24954047  0.90396073  0.15881442     0.27900
C969        C  0.13910461  0.60093610  0.82609267    -0.11500
C970        C  0.11403470  0.59393028  0.81420257    -0.13100
C971        C  0.37093636  0.59268909  0.81605629    -0.11500
C972        C  0.34500705  0.59948391  0.82778398    -0.13100
C973        C  0.11477119  0.90075074  0.81490004    -0.11500
C974        C  0.14134598  0.89146042  0.82565928    -0.13100
C975        C  0.34761516  0.89146895  0.82672212    -0.11500
C976        C  0.37342624  0.90092882  0.81547652    -0.13100
C977        C  0.06920323  0.67400684  0.05940405    -0.16700
C978        C  0.09144444  0.65942728  0.07104975     0.07300
C979        C  0.11965803  0.64898973  0.08525027     0.09200
C980        C  0.14458148  0.64399229  0.09750588    -0.17600
C981        C  0.34888874  0.63769970  0.09608800    -0.16700
C982        C  0.37335464  0.64341614  0.08356405     0.07300
C983        C  0.40113294  0.65537521  0.06934826     0.09200
C984        C  0.42287354  0.67149279  0.05793246    -0.17600
C985        C  0.09922780  0.81809757  0.04999343    -0.16700
C986        C  0.11631318  0.83214203  0.06360164     0.07300
C987        C  0.13341950  0.84526769  0.08108090     0.09200
C988        C  0.15035983  0.85363687  0.09586163    -0.17600
C989        C  0.39167511  0.81947670  0.04917673    -0.16700
C990        C  0.37677380  0.83490656  0.06296822     0.07300
C991        C  0.36317242  0.84882063  0.08086507     0.09200
C992        C  0.34785661  0.85683406  0.09606085    -0.17600
C993        C  0.06760116  0.79442297  0.95894331    -0.16700
C994        C  0.08748886  0.80616513  0.94572983     0.07300
C995        C  0.11461709  0.81536307  0.93100023     0.09200
C996        C  0.13990958  0.82220325  0.91919330    -0.17600
C997        C  0.34435156  0.82619465  0.92137498    -0.16700
C998        C  0.36942825  0.81985604  0.93336728     0.07300
C999        C  0.39758630  0.81048264  0.94768871     0.09200
C1000       C  0.41917387  0.79836209  0.96021152    -0.17600
C1001       C  0.13772136  0.62988866  0.92586910    -0.16700
C1002       C  0.12181989  0.63478836  0.94134752     0.07300
C1003       C  0.10916798  0.64533063  0.96011212     0.09200
C1004       C  0.09706649  0.65940823  0.97496572    -0.17600
C1005       C  0.38827738  0.66435489  0.97411853    -0.16700
C1006       C  0.37262933  0.65125559  0.95986606     0.07300
C1007       C  0.35551014  0.64050316  0.94197718     0.09200
C1008       C  0.33791769  0.63438204  0.92709444    -0.17600
C1009       C  0.35397386  0.90677735  0.19314718    -0.11500
C1010       C  0.37999199  0.91406008  0.20467705    -0.13100
C1011       C  0.11941345  0.91550842  0.20412134    -0.11500
C1012       C  0.14553230  0.90581094  0.19302885    -0.13100
C1013       C  0.37593562  0.60647270  0.20673000    -0.11500
C1014       C  0.35075867  0.61699136  0.19536278    -0.13100
C1015       C  0.11515211  0.61666952  0.20656124    -0.11500
C1016       C  0.14235824  0.62638244  0.19601820    -0.13100
C1017       C  0.10749505  0.64054819  0.69252892    -0.11500
C1018       C  0.09698882  0.61474855  0.70326832    -0.13100
C1019       C  0.08913355  0.86911059  0.70799852    -0.11500
C1020       C  0.09954807  0.84272923  0.69761053    -0.13100
C1021       C  0.39466455  0.62373912  0.70655297    -0.11500
C1022       C  0.38413351  0.65051542  0.69629350    -0.13100
C1023       C  0.37732522  0.85325044  0.69644557    -0.11500
C1024       C  0.38817349  0.87842548  0.70722336    -0.13100
C1025       C  0.31681992  0.58128961  0.56348529    -0.16700
C1026       C  0.33580761  0.60275129  0.57336201     0.07300
C1027       C  0.35172989  0.63021235  0.58596947     0.09200
C1028       C  0.35987594  0.65452637  0.59765573    -0.17600
C1029       C  0.36325474  0.85589701  0.59695762    -0.16700
C1030       C  0.35926161  0.87993821  0.58415163     0.07300
C1031       C  0.34997213  0.90645300  0.56891136     0.09200
C1032       C  0.33599700  0.92627066  0.55603611    -0.17600
C1033       C  0.13790469  0.65278062  0.59412560    -0.16700
C1034       C  0.14333532  0.63032623  0.58093273     0.07300
C1035       C  0.15298302  0.60436859  0.56570925     0.09200
C1036       C  0.16643869  0.58332633  0.55328997    -0.17600
C1037       C  0.17706034  0.91929233  0.56128150    -0.16700
C1038       C  0.15864763  0.90105580  0.57323810     0.07300
C1039       C  0.14246369  0.87634024  0.58756310     0.09200
C1040       C  0.13350471  0.85264269  0.59974515    -0.17600
C1041       C  0.11449877  0.65989381  0.32510567    -0.11500
C1042       C  0.10260531  0.63350291  0.31504418    -0.13100
C1043       C  0.12026735  0.86537958  0.32549848    -0.11500
C1044       C  0.10914143  0.89179181  0.31510620    -0.13100
C1045       C  0.14765288  0.66132167  0.42326686    -0.16700
C1046       C  0.15814968  0.63740216  0.43497690     0.07300
C1047       C  0.17527593  0.61067173  0.44797127     0.09200
C1048       C  0.19313147  0.58903023  0.45856265    -0.17600
C1049       C  0.16430055  0.93208113  0.46572406    -0.16700
C1050       C  0.15147542  0.91265193  0.45259788     0.07300
C1051       C  0.14302189  0.88641259  0.43732377     0.09200
C1052       C  0.13928173  0.86264288  0.42455154    -0.17600
C1053       C  0.39561709  0.62239755  0.32099493    -0.11500
C1054       C  0.38626121  0.64849787  0.33188794    -0.13100
C1055       C  0.39331417  0.85428795  0.32854415    -0.11500
C1056       C  0.40319726  0.88117050  0.31795006    -0.13100
C1057       C  0.36253817  0.65472236  0.43132581    -0.16700
C1058       C  0.35667991  0.63249049  0.44481424     0.07300
C1059       C  0.34685800  0.60696013  0.46050542     0.09200
C1060       C  0.33372916  0.58585194  0.47318783    -0.17600
C1061       C  0.36815714  0.85439705  0.42730146    -0.16700
C1062       C  0.35912482  0.87752324  0.43952958     0.07300
C1063       C  0.34234979  0.90197840  0.45354720     0.09200
C1064       C  0.32289085  0.92012022  0.46497592    -0.17600
N1065       N  0.87834172  0.25235549  0.34915387    -0.34800
N1066       N  0.87366691  0.19266591  0.38039646    -0.55400
N1067       N  0.87103627  0.25368878  0.40862584    -0.34800
N1068       N  0.87872503  0.31317842  0.37794162    -0.55400
C1069       C  0.88749521  0.21930262  0.33931364     0.28800
C1070       C  0.88978531  0.28348213  0.33809607     0.28800
C1071       C  0.87539242  0.22232454  0.42052540     0.28800
C1072       C  0.87821665  0.28588364  0.41919064     0.28800
C1073       C  0.86967284  0.16947572  0.36479694     0.37400
C1074       C  0.86480066  0.17048088  0.39617085     0.37400
C1075       C  0.87614029  0.33605440  0.36195254     0.37400
C1076       C  0.87099091  0.33654207  0.39317774     0.37400
C1077       C  0.90419203  0.22963615  0.32157151    -0.20100
C1078       C  0.90562073  0.26997940  0.32081764    -0.20100
C1079       C  0.88543345  0.23482135  0.43889283    -0.20100
C1080       C  0.88716990  0.27494565  0.43806103    -0.20100
C1081       C  0.85850706  0.13221743  0.37072717    -0.21200
C1082       C  0.85532954  0.13290815  0.39057423    -0.21200
C1083       C  0.86717012  0.37421921  0.36708032    -0.21200
C1084       C  0.86370851  0.37449859  0.38686291    -0.21200
C1085       C  0.87983187  0.18020098  0.34555685    -0.16500
C1086       C  0.88520256  0.32365215  0.34300309    -0.16500
C1087       C  0.87323898  0.32482778  0.41274984    -0.16500
C1088       C  0.86775459  0.18308612  0.41557271    -0.16500
H1089       H  0.91434221  0.21012841  0.31029220     0.16400
H1090       H  0.91709414  0.28737113  0.30890317     0.16400
H1091       H  0.89032042  0.21694912  0.45166030     0.16400
H1092       H  0.89354836  0.29395629  0.45008728     0.16400
H1093       H  0.85380159  0.10694750  0.36171085     0.14700
H1094       H  0.84768194  0.10838041  0.39983415     0.14700
H1095       H  0.86393657  0.39933510  0.35758510     0.14700
H1096       H  0.85737950  0.39992346  0.39561171     0.14700
H1097       H  0.86192714  0.25347374  0.36191138     0.27900
H1098       H  0.85869506  0.25369859  0.39490793     0.27900
N1099       N  0.63844679  0.26189982  0.40360766    -0.34800
N1100       N  0.63347680  0.32234250  0.37437118    -0.55400
N1101       N  0.63101348  0.26206520  0.34394472    -0.34800
N1102       N  0.63193331  0.20165877  0.37372206    -0.55400
C1103       C  0.63384833  0.29335931  0.41524649     0.28800
C1104       C  0.63508742  0.22959266  0.41485836     0.28800
C1105       C  0.62229380  0.29469907  0.33347765     0.28800
C1106       C  0.62038411  0.23055820  0.33328123     0.28800
C1107       C  0.63965574  0.34539574  0.38990811     0.37400
C1108       C  0.63648076  0.34557885  0.35853976     0.37400
C1109       C  0.64005837  0.17846672  0.38912163     0.37400
C1110       C  0.63304531  0.17839975  0.35798781     0.37400
C1111       C  0.62781174  0.28075193  0.43416556    -0.20100
C1112       C  0.62874777  0.24055285  0.43393511    -0.20100
C1113       C  0.60722907  0.28371032  0.31567961    -0.20100
C1114       C  0.60598147  0.24339837  0.31557463    -0.20100
C1115       C  0.64640424  0.38352602  0.38391277    -0.21200
C1116       C  0.64441739  0.38366539  0.36408350    -0.21200
C1117       C  0.64593225  0.14020446  0.38314906    -0.21200
C1118       C  0.64124292  0.14013543  0.36346118    -0.21200
C1119       C  0.63734209  0.33301359  0.40946716    -0.16500
C1120       C  0.64021299  0.19064289  0.40861263    -0.16500
C1121       C  0.62399500  0.19058573  0.33894395    -0.16500
C1122       C  0.62804027  0.33407166  0.33937723    -0.16500
H1123       H  0.62378692  0.29863023  0.44689060     0.16400
H1124       H  0.62549457  0.22156112  0.44644145     0.16400
H1125       H  0.59774635  0.30276630  0.30399611     0.16400
H1126       H  0.59542050  0.22559499  0.30381336     0.16400
H1127       H  0.65170048  0.40873506  0.39288896     0.14700
H1128       H  0.64767300  0.40912543  0.35482099     0.14700
H1129       H  0.65230305  0.11481357  0.39206884     0.14700
H1130       H  0.64345222  0.11476408  0.35424343     0.14700
H1131       H  0.64784676  0.26215096  0.38944762     0.27900
H1132       H  0.64611227  0.26148342  0.35685926     0.27900
O1133       O  0.79450309  0.42710206  0.49527390    -0.78400
O1134       O  0.78842536  0.06464194  0.53390079    -0.78400
O1135       O  0.80307846  0.02794962  0.48512355    -0.78400
O1136       O  0.80816078  0.47981795  0.53899591    -0.78300
O1137       O  0.78646649  0.08258945  0.49784593    -0.78500
O1138       O  0.78393838  0.42118195  0.53459281    -0.78400
O1139       O  0.76961266  0.03231685  0.56082023    -0.78400
O1140       O  0.77103291  0.46324639  0.47109280    -0.78400
C1141       C  0.79530424  0.43820319  0.47779128     1.11300
C1142       C  0.79028873  0.05853415  0.55240146     1.11200
C1143       C  0.80849184  0.06437950  0.48647934     1.11400
C1144       C  0.80955044  0.44331629  0.54194666     1.11200
O1145       O  0.70058485  0.42867368  0.52987561    -0.78400
O1146       O  0.71446545  0.06891905  0.48933752    -0.78400
O1147       O  0.69278760  0.48477789  0.48253090    -0.78400
O1148       O  0.69913408  0.02650659  0.54210400    -0.78400
O1149       O  0.71142040  0.08105734  0.52774801    -0.78400
O1150       O  0.71092757  0.42438969  0.48983142    -0.78400
O1151       O  0.73007920  0.46033277  0.55371493    -0.78300
O1152       O  0.73722669  0.03724167  0.46319563    -0.78400
Co1153     Co  0.74730694  0.42912244  0.51232831     1.51500
Co1154     Co  0.74879008  0.05013117  0.51242058     1.51700
Co1155     Co  0.74686477  0.00720736  0.48570768     1.51600
Co1156     Co  0.75446287  0.00451707  0.53868351     1.51500
O1157       O  0.74763178  0.98847927  0.51226135    -1.40300
C1158       C  0.70321258  0.43755367  0.54760375     1.11300
C1159       C  0.71627547  0.06422108  0.47074997     1.11300
C1160       C  0.68917225  0.44816767  0.48056805     1.11300
C1161       C  0.69194926  0.06253207  0.54009838     1.11300
N1162       N  0.86945798  0.25223422  0.67710952    -0.34800
N1163       N  0.86769232  0.31360154  0.64702605    -0.55400
N1164       N  0.86397557  0.25457785  0.61759768    -0.34800
N1165       N  0.86940569  0.19330466  0.64738159    -0.55400
C1166       C  0.87841993  0.28413955  0.68760289     0.28800
C1167       C  0.88049482  0.22044587  0.68764533     0.28800
C1168       C  0.86972792  0.28648777  0.60621302     0.28800
C1169       C  0.86930942  0.22276374  0.60641375     0.28800
C1170       C  0.86335121  0.33596630  0.66293144     0.37400
C1171       C  0.86143756  0.33731071  0.63155310     0.37400
C1172       C  0.86741257  0.16952839  0.66306294     0.37400
C1173       C  0.86230143  0.17073356  0.63187277     0.37400
C1174       C  0.89450860  0.27246844  0.70519426    -0.20100
C1175       C  0.89584423  0.23230341  0.70520435    -0.20100
C1176       C  0.87835981  0.27470081  0.58747622    -0.20100
C1177       C  0.87797323  0.23449878  0.58758766    -0.20100
C1178       C  0.85461788  0.37419732  0.65752368    -0.21200
C1179       C  0.85339886  0.37503108  0.63765839    -0.21200
C1180       C  0.85951971  0.13153606  0.65748630    -0.21200
C1181       C  0.85604853  0.13231693  0.63772680    -0.21200
C1182       C  0.87128414  0.32342223  0.68206845    -0.16500
C1183       C  0.87592895  0.18105146  0.68212238    -0.16500
C1184       C  0.86421934  0.18356865  0.61243641    -0.16500
C1185       C  0.86506527  0.32584025  0.61200445    -0.16500
H1186       H  0.90438236  0.29095979  0.71683773     0.16400
H1187       H  0.90689532  0.21394624  0.71683184     0.16400
H1188       H  0.88390334  0.29313192  0.57495580     0.16400
H1189       H  0.88321766  0.21601630  0.57517433     0.16400
H1190       H  0.85035709  0.39908409  0.66690636     0.14700
H1191       H  0.84778610  0.40059128  0.62873700     0.14700
H1192       H  0.85702386  0.10586772  0.66666475     0.14700
H1193       H  0.85043879  0.10726923  0.62868698     0.14700
H1194       H  0.85328007  0.25227833  0.66436601     0.27900
H1195       H  0.85252605  0.25429338  0.63155766     0.27900
N1196       N  0.61672086  0.24389184  0.67623901    -0.34800
N1197       N  0.62006935  0.30690760  0.64829919    -0.55400
N1198       N  0.63033404  0.25046943  0.61736986    -0.34800
N1199       N  0.62521939  0.18732976  0.64488014    -0.55400
C1200       C  0.60283280  0.27402389  0.68698992     0.28800
C1201       C  0.60523547  0.21051226  0.68517271     0.28800
C1202       C  0.62301553  0.28347692  0.60710731     0.28800
C1203       C  0.62571959  0.21999050  0.60523076     0.28800
C1204       C  0.62183645  0.32790459  0.66472673     0.37400
C1205       C  0.62976771  0.33152292  0.63369132     0.37400
C1206       C  0.62784171  0.16288632  0.66024181     0.37400
C1207       C  0.63560054  0.16635587  0.62911936     0.37400
C1208       C  0.58275142  0.25964806  0.70308451    -0.20100
C1209       C  0.58424302  0.21952479  0.70194324    -0.20100
C1210       C  0.61375867  0.27393710  0.58819187    -0.20100
C1211       C  0.61545586  0.23382874  0.58700926    -0.20100
C1212       C  0.63255893  0.36613944  0.66055233    -0.21200
C1213       C  0.63772782  0.36840839  0.64084774    -0.21200
C1214       C  0.63987603  0.12604272  0.65422541    -0.21200
C1215       C  0.64489052  0.12827761  0.63448033    -0.21200
C1216       C  0.60944657  0.31399939  0.68300367    -0.16500
C1217       C  0.61498265  0.17227271  0.67912361    -0.16500
C1218       C  0.63317338  0.18036528  0.60989387    -0.16500
C1219       C  0.62809410  0.32187559  0.61393573    -0.16500
H1220       H  0.56859829  0.27631441  0.71448567     0.16400
H1221       H  0.57143075  0.19930679  0.71233709     0.16400
H1222       H  0.60713945  0.29385318  0.57638287     0.16400
H1223       H  0.61029768  0.21683767  0.57412657     0.16400
H1224       H  0.63544651  0.39007115  0.67059449     0.14700
H1225       H  0.64540496  0.39445519  0.63268601     0.14700
H1226       H  0.64358103  0.10003364  0.66306678     0.14700
H1227       H  0.65329267  0.10437629  0.62510281     0.14700
H1228       H  0.63638579  0.24584465  0.66460429     0.27900
H1229       H  0.64286235  0.24924836  0.63106438     0.27900
C1230       C  0.91397544  0.09582179  0.30746945     0.44200
N1231       N  0.95094195  0.07813698  0.28378724     0.03100
C1232       C  0.94649129  0.41513110  0.22539247    -0.04800
H1233       H  0.97722298  0.37649483  0.29492190     0.08600
C1234       C  0.60022524  0.45861024  0.29641988    -0.05100
Co1235     Co  0.92562441  0.50407883  0.26509589     0.74200
N1236       N  0.96193743  0.43245037  0.28246648    -0.24300
Co1237     Co  0.50367297  0.43810756  0.26040057     0.74100
C1238       C  0.58854128  0.41937111  0.30290465     0.44300
N1239       N  0.56715471  0.05950584  0.28369177     0.02700
N1240       N  0.54822870  0.43904797  0.28110311     0.02800
N1241       N  0.89646595  0.45797873  0.23107531    -0.45100
H1242       H  0.87519683  0.04058873  0.30499727     0.08600
N1243       N  0.93225839  0.45727791  0.28524980     0.03100
N1244       N  0.54822554  0.44470958  0.23915812     0.02900
C1245       C  0.59251821  0.43486649  0.21723545     0.44500
N1246       N  0.53729539  0.08462446  0.28243185    -0.23700
C1247       C  0.89140488  0.05226715  0.23115610    -0.04700
N1248       N  0.94469689  0.10663433  0.29625165    -0.44800
N1249       N  0.55889921  0.41999149  0.22525350    -0.45100
C1250       C  0.90174568  0.08724529  0.22042413     0.44300
N1251       N  0.92612654  0.46284753  0.24325120     0.03100
N1252       N  0.53840027  0.08300553  0.24034756    -0.23800
N1253       N  0.92617127  0.04851111  0.28606876    -0.24300
N1254       N  0.56837222  0.05803932  0.24173775     0.02800
H1255       H  0.53120473  0.13583073  0.22314324     0.08600
H1256       H  0.62885875  0.48774332  0.22648147     0.08700
N1257       N  0.95620722  0.43852260  0.24032750    -0.24300
N1258       N  0.57305213  0.46862994  0.28297431    -0.23900
N1259       N  0.94661245  0.07619719  0.24171946     0.03100
C1260       C  0.92249551  0.41002646  0.30559573     0.44500
C1261       C  0.54308585  0.11407888  0.29466564    -0.05200
N1262       N  0.57400616  0.47341270  0.24102312    -0.23900
H1263       H  0.62651069  0.47510480  0.29991414     0.08700
N1264       N  0.90700377  0.44429113  0.29878552    -0.45100
H1265       H  0.52497668  0.14022226  0.29564861     0.08700
C1266       C  0.58721639  0.09715456  0.21926136     0.44400
C1267       C  0.90098863  0.05735371  0.30071043    -0.04700
Co1268     Co  0.49313025  0.08104533  0.26173202     0.73800
N1269       N  0.59472322  0.07154747  0.29603263    -0.44900
C1270       C  0.90678259  0.42863265  0.21930014     0.44600
N1271       N  0.93595278  0.10128822  0.22785406    -0.44800
Co1272     Co  0.57116791  0.51481673  0.26274126     0.73900
C1273       C  0.60263943  0.46972393  0.22770681    -0.05200
C1274       C  0.95847376  0.40227982  0.29475002    -0.04700
N1275       N  0.92055983  0.04771558  0.24403468    -0.24300
N1276       N  0.55641574  0.40932623  0.29275067    -0.45000
H1277       H  0.96395224  0.39073741  0.22014528     0.08600
C1278       C  0.54790841  0.10957337  0.22650300    -0.05100
Cl1279     Cl  0.49839960  0.50950628  0.26254911    -0.48100
C1280       C  0.58072725  0.10542345  0.30373879     0.44400
H1281       H  0.86529700  0.03415109  0.23003402     0.08600
N1282       N  0.59769546  0.06537748  0.22948234    -0.44900
O1283       O  0.96286273  0.24937847  0.97045714    -0.78400
O1284       O  0.53583948  0.30896499  0.03834356    -0.78400
O1285       O  0.90816962  0.26695943  0.02899823    -0.78400
O1286       O  0.55692097  0.27949515  0.99159264    -0.78300
O1287       O  0.95434440  0.30876398  0.03746794    -0.78500
O1288       O  0.52518354  0.24623094  0.97009830    -0.78400
O1289       O  0.58204241  0.26722838  0.02865957    -0.78400
O1290       O  0.93250516  0.28263378  0.99255130    -0.78400
C1291       C  0.93987064  0.27701831  0.97494530     1.11300
C1292       C  0.57179602  0.29827398  0.03759532     1.11200
C1293       C  0.91851561  0.29848324  0.03712511     1.11400
C1294       C  0.54847821  0.27343835  0.97414968     1.11200
O1295       O  0.53679433  0.18014620  0.98768666    -0.78400
O1296       O  0.95445167  0.23080251  0.05333480    -0.78400
O1297       O  0.89696613  0.21159405  0.99858597    -0.78400
O1298       O  0.54268360  0.19261303  0.02934956    -0.78400
O1299       O  0.53542695  0.23201561  0.05411877    -0.78400
O1300       O  0.95009845  0.18143978  0.98658433    -0.78400
O1301       O  0.59173101  0.20834676  0.99877236    -0.78300
O1302       O  0.94805652  0.19252933  0.02802131    -0.78400
Co1303     Co  0.49369433  0.22155891  0.99086487     1.51500
Co1304     Co  0.49483417  0.26970764  0.04426414     1.51700
Co1305     Co  0.94205134  0.23739038  0.01001057     1.51600
Co1306     Co  0.54787654  0.23614426  0.01030124     1.51500
O1307       O  0.49509330  0.25566638  0.01600912    -1.40300
C1308       C  0.57488213  0.18276690  0.98832622     1.11300
C1309       C  0.94408817  0.19866177  0.04593613     1.11300
C1310       C  0.91218838  0.18581673  0.98754331     1.11300
C1311       C  0.54691202  0.19984912  0.04712042     1.11300
N1312       N  0.80432426  0.35559887  0.87322399    -0.34800
N1313       N  0.74398471  0.37797735  0.84498852    -0.55400
N1314       N  0.68254030  0.35471303  0.87223082    -0.34800
N1315       N  0.74275870  0.33599884  0.90110833    -0.55400
C1316       C  0.82728644  0.37331550  0.85965768     0.28800
C1317       C  0.82638560  0.35214145  0.88947577     0.28800
C1318       C  0.65992546  0.37231418  0.85855699     0.28800
C1319       C  0.65937008  0.35000969  0.88810996     0.28800
C1320       C  0.77663785  0.38128621  0.83361065     0.37400
C1321       C  0.71217222  0.38140796  0.83321217     0.37400
C1322       C  0.77463385  0.32395245  0.91136284     0.37400
C1323       C  0.71038146  0.32268079  0.91063738     0.37400
C1324       C  0.86455174  0.38058228  0.86727064    -0.20100
C1325       C  0.86396237  0.36728642  0.88608121    -0.20100
C1326       C  0.62180106  0.37830757  0.86575185    -0.20100
C1327       C  0.62144662  0.36423370  0.88440120    -0.20100
C1328       C  0.76548601  0.38752882  0.81453981    -0.21200
C1329       C  0.72466164  0.38764308  0.81429658    -0.21200
C1330       C  0.76246170  0.30314184  0.92763554    -0.21200
C1331       C  0.72169558  0.30229680  0.92716850    -0.21200
C1332       C  0.81625311  0.38128628  0.84032412    -0.16500
C1333       C  0.81429773  0.33389549  0.90693607    -0.16500
C1334       C  0.67081628  0.33131084  0.90546035    -0.16500
C1335       C  0.67208294  0.38112843  0.83944664    -0.16500
H1336       H  0.88968055  0.39395345  0.86000825     0.16400
H1337       H  0.88857270  0.36838526  0.89606378     0.16400
H1338       H  0.59669670  0.39121117  0.85830408     0.16400
H1339       H  0.59600108  0.36419247  0.89406198     0.16400
H1340       H  0.78474237  0.39198752  0.80211914     0.14700
H1341       H  0.70628636  0.39212324  0.80166567     0.14700
H1342       H  0.78097106  0.29033788  0.93878772     0.14700
H1343       H  0.70257922  0.28876399  0.93791976     0.14700
H1344       H  0.77719908  0.34285382  0.87083218     0.27900
H1345       H  0.71029988  0.34267658  0.87017738     0.27900
N1346       N  0.73844246  0.12639965  0.90503035    -0.34800
N1347       N  0.80129734  0.11832280  0.87661729    -0.55400
N1348       N  0.74107234  0.10667365  0.84700306    -0.34800
N1349       N  0.67801444  0.11790604  0.87561972    -0.55400
C1350       C  0.77000201  0.13903631  0.91520706     0.28800
C1351       C  0.70550658  0.13816031  0.91467847     0.28800
C1352       C  0.77413365  0.10959930  0.83578931     0.28800
C1353       C  0.70911395  0.11016482  0.83526167     0.28800
C1354       C  0.82374085  0.11807720  0.89280502     0.37400
C1355       C  0.82533009  0.10726757  0.86188545     0.37400
C1356       C  0.65428670  0.11657403  0.89146982     0.37400
C1357       C  0.65545529  0.10743069  0.86045727     0.37400
C1358       C  0.75693713  0.15925117  0.93139022    -0.20100
C1359       C  0.71627735  0.15870873  0.93106178    -0.20100
C1360       C  0.76300868  0.11461781  0.81661942    -0.20100
C1361       C  0.72207032  0.11502579  0.81629060    -0.20100
C1362       C  0.86242752  0.10739832  0.88833076    -0.21200
C1363       C  0.86347162  0.10054052  0.86873031    -0.21200
C1364       C  0.61618281  0.10579317  0.88637549    -0.21200
C1365       C  0.61686536  0.10007656  0.86667786    -0.21200
C1366       C  0.81011289  0.12998433  0.91122656    -0.16500
C1367       C  0.66622707  0.12777607  0.91013135    -0.16500
C1368       C  0.66873168  0.10650256  0.84100445    -0.16500
C1369       C  0.81394166  0.10557335  0.84222318    -0.16500
H1370       H  0.77481322  0.17252927  0.94249216     0.16400
H1371       H  0.69690891  0.17155122  0.94186574     0.16400
H1372       H  0.78237586  0.11735461  0.80411979     0.16400
H1373       H  0.70391860  0.11808123  0.80348732     0.16400
H1374       H  0.88735556  0.10530549  0.89810780     0.14700
H1375       H  0.88946167  0.09201268  0.86044175     0.14700
H1376       H  0.59051709  0.10300234  0.89579536     0.14700
H1377       H  0.59176726  0.09174922  0.85793348     0.14700
H1378       H  0.73927111  0.10627577  0.89383256     0.27900
H1379       H  0.74040500  0.09832290  0.86146995     0.27900
C1380       C  0.90895949  0.40828271  0.71730813     0.44200
N1381       N  0.92192094  0.45635373  0.73563619     0.03100
C1382       C  0.59327435  0.06708047  0.73264801    -0.04800
H1383       H  0.61470530  0.41400938  0.74388083     0.08600
C1384       C  0.54607951  0.43070202  0.80800024    -0.05100
Co1385     Co  0.99550449  0.49706813  0.72248435     0.74200
N1386       N  0.56561957  0.45311459  0.73755425    -0.24300
Co1387     Co  0.56604676  0.49678996  0.75856004     0.74100
C1388       C  0.58436987  0.41422644  0.80193687     0.43300
N1389       N  0.94601094  0.45673502  0.79271607     0.02700
N1390       N  0.56412375  0.45529925  0.78051005     0.02800
N1391       N  0.54631067  0.06536237  0.70930002    -0.45100
H1392       H  0.96333982  0.41967592  0.69796237     0.08600
N1393       N  0.53850190  0.45334551  0.72384121     0.03100
N1394       N  0.56465558  0.03981064  0.77980506     0.02900
C1395       C  0.58439693  0.08174331  0.80064543     0.44500
N1396       N  0.91955493  0.45713621  0.77867818    -0.23700
C1397       C  0.94798304  0.07032855  0.70943387    -0.04700
N1398       N  0.89551614  0.42832975  0.73279476    -0.44800
N1399       N  0.59428861  0.06349833  0.78403783    -0.45100
C1400       C  0.91285165  0.09092519  0.71616967     0.44300
N1401       N  0.54007077  0.03841743  0.72276494     0.03100
N1402       N  0.91997979  0.04189043  0.77829797    -0.23800
N1403       N  0.95100303  0.45578441  0.72275552    -0.24300
N1404       N  0.94616676  0.04138787  0.79244422     0.02800
H1405       H  0.86240755  0.06880042  0.77548907     0.08600
H1406       H  0.53063370  0.06961130  0.82036852     0.08700
N1407       N  0.56700086  0.03866194  0.73654628    -0.24300
N1408       N  0.53579289  0.45576402  0.79380843    -0.23900
N1409       N  0.92351019  0.04218737  0.73500261     0.03100
C1410       C  0.57346024  0.40240629  0.71810064     0.44500
C1411       C  0.89098092  0.43140122  0.78300764    -0.05200
N1412       N  0.53593787  0.04064845  0.79292523    -0.23900
H1413       H  0.53146231  0.42842186  0.82194899     0.08700
N1414       N  0.54228656  0.42363468  0.71180765    -0.45100
H1415       H  0.86315772  0.42873439  0.77539087     0.08700
C1416       C  0.90066376  0.08161307  0.80196896     0.44400
C1417       C  0.94520350  0.42643559  0.71048812    -0.04700
Co1418     Co  0.92041878  0.49946755  0.75685007     0.73800
N1419       N  0.93626445  0.43230994  0.80692674    -0.44900
C1420       C  0.57913505  0.08450680  0.71466354     0.44600
N1421       N  0.89872966  0.07194113  0.73197672    -0.44800
Co1422     Co  0.99099395  0.49864252  0.79331056     0.73900
C1423       C  0.54572698  0.06642158  0.80659557    -0.05200
C1424       C  0.58946390  0.42188041  0.73503402    -0.04700
N1425       N  0.95241486  0.04073018  0.72200414    -0.24300
N1426       N  0.59369248  0.43130352  0.78491672    -0.45000
H1427       H  0.61948667  0.07361869  0.74096915     0.08600
C1428       C  0.89051624  0.06667363  0.78293989    -0.05100
Cl1429     Cl  0.99321714  0.49805916  0.75785142    -0.48100
C1430       C  0.90215863  0.41477886  0.80166302     0.44400
H1431       H  0.96665672  0.07618922  0.69696092     0.08600
N1432       N  0.93531589  0.06422302  0.80699633    -0.44900
N1433       N  0.74728600  0.13330566  0.17678027    -0.34800
N1434       N  0.68627095  0.13811502  0.14721958    -0.55400
N1435       N  0.74711453  0.13856293  0.11722505    -0.34800
N1436       N  0.80826817  0.13134284  0.14638206    -0.55400
C1437       C  0.71434094  0.12467260  0.18740311     0.28800
C1438       C  0.77940667  0.12110318  0.18698353     0.28800
C1439       C  0.71431207  0.13301975  0.10639912     0.28800
C1440       C  0.77903096  0.13046470  0.10592686     0.28800
C1441       C  0.66327909  0.14353044  0.16308044     0.37400
C1442       C  0.66331298  0.14664396  0.13176476     0.37400
C1443       C  0.83194884  0.13368561  0.16204297     0.37400
C1444       C  0.83171348  0.13779149  0.13072271     0.37400
C1445       C  0.72577185  0.10748325  0.20475577    -0.20100
C1446       C  0.76673085  0.10526299  0.20450127    -0.20100
C1447       C  0.72553259  0.12140744  0.08794981    -0.20100
C1448       C  0.76640658  0.11989238  0.08763784    -0.20100
C1449       C  0.62552798  0.15564032  0.15768311    -0.21200
C1450       C  0.62557879  0.15771051  0.13783705    -0.21200
C1451       C  0.87072799  0.14131705  0.15629166    -0.21200
C1452       C  0.87054768  0.14408073  0.13645209    -0.21200
C1453       C  0.67442502  0.13305153  0.18206988    -0.16500
C1454       C  0.81980602  0.12523131  0.18122431    -0.16500
C1455       C  0.81912467  0.13503630  0.11132584    -0.16500
C1456       C  0.67484685  0.14104886  0.11230344    -0.16500
H1457       H  0.70660518  0.09754365  0.21640930     0.16400
H1458       H  0.78507403  0.09325993  0.21592817     0.16400
H1459       H  0.70629706  0.11529025  0.07586390     0.16400
H1460       H  0.78475051  0.11229262  0.07528880     0.16400
H1461       H  0.60028543  0.16136871  0.16704620     0.14700
H1462       H  0.60039203  0.16540669  0.12889542     0.14700
H1463       H  0.89657914  0.14393861  0.16541816     0.14700
H1464       H  0.89622936  0.14921173  0.12728894     0.14700
H1465       H  0.74804506  0.14980029  0.16409354     0.27900
H1466       H  0.74785908  0.15183012  0.13068147     0.27900
N1467       N  0.74909894  0.36415731  0.11757355    -0.34800
N1468       N  0.81097995  0.38127193  0.14549553    -0.55400
N1469       N  0.74976036  0.39857480  0.17361462    -0.34800
N1470       N  0.68791293  0.37923310  0.14519914    -0.55400
C1471       C  0.78170216  0.34891321  0.10904205     0.28800
C1472       C  0.71738577  0.34842297  0.10870379     0.28800
C1473       C  0.78231027  0.39786583  0.18519847     0.28800
C1474       C  0.71699578  0.39677327  0.18512761     0.28800
C1475       C  0.83329097  0.37948804  0.12922873     0.37400
C1476       C  0.83428124  0.39629771  0.15936788     0.37400
C1477       C  0.66510923  0.37727477  0.12916478     0.37400
C1478       C  0.66488938  0.39433768  0.15934303     0.37400
C1479       C  0.77063259  0.32264403  0.09485226    -0.20100
C1480       C  0.72992722  0.32238570  0.09462920    -0.20100
C1481       C  0.76993312  0.39633709  0.20436804    -0.20100
C1482       C  0.72888047  0.39566563  0.20432973    -0.20100
C1483       C  0.87117426  0.39327597  0.13270518    -0.21200
C1484       C  0.87188894  0.40378402  0.15189689    -0.21200
C1485       C  0.62719725  0.39096424  0.13309683    -0.21200
C1486       C  0.62697066  0.40169877  0.15227577    -0.21200
C1487       C  0.82064304  0.36203720  0.11198339    -0.16500
C1488       C  0.67782735  0.36022641  0.11166228    -0.16500
C1489       C  0.67677060  0.39859863  0.17881642    -0.16500
C1490       C  0.82268149  0.40039350  0.17892537    -0.16500
H1491       H  0.78987155  0.30624566  0.08523995     0.16400
H1492       H  0.71168418  0.30571719  0.08487606     0.16400
H1493       H  0.78852847  0.39600822  0.21708978     0.16400
H1494       H  0.70992220  0.39478970  0.21703714     0.16400
H1495       H  0.89592106  0.39455811  0.12264096     0.14700
H1496       H  0.89727953  0.41513114  0.15952534     0.14700
H1497       H  0.60222109  0.39226963  0.12332081     0.14700
H1498       H  0.60164211  0.41315988  0.16016900     0.14700
H1499       H  0.74869078  0.38837075  0.12659982     0.27900
H1500       H  0.74958106  0.40398465  0.15881816     0.27900
C1501       C  0.63914260  0.10091465  0.82607753    -0.11500
C1502       C  0.61406926  0.09391381  0.81418866    -0.13100
C1503       C  0.87097220  0.09267311  0.81607007    -0.11500
C1504       C  0.84504483  0.09946598  0.82779934    -0.13100
C1505       C  0.61473536  0.40077812  0.81493335    -0.11500
C1506       C  0.64130329  0.39148737  0.82569687    -0.13100
C1507       C  0.84757665  0.39150981  0.82673528    -0.11500
C1508       C  0.87338637  0.40096788  0.81548851    -0.13100
C1509       C  0.56918742  0.17394744  0.05940649    -0.16700
C1510       C  0.59141622  0.15936196  0.07105610     0.07300
C1511       C  0.61961461  0.14892036  0.08526311     0.09200
C1512       C  0.64453178  0.14392323  0.09752176    -0.17600
C1513       C  0.84884262  0.13768501  0.09607374    -0.16700
C1514       C  0.87331070  0.14338741  0.08354971     0.07300
C1515       C  0.90110060  0.15532937  0.06933666     0.09200
C1516       C  0.92285456  0.17144034  0.05792526    -0.17600
C1517       C  0.59923228  0.31804918  0.05000991    -0.16700
C1518       C  0.61632670  0.33209194  0.06361655     0.07300
C1519       C  0.63344274  0.34521934  0.08109426     0.09200
C1520       C  0.65038477  0.35359302  0.09587455    -0.17600
C1521       C  0.89166352  0.31943845  0.04919064    -0.16700
C1522       C  0.87675827  0.33486175  0.06298175     0.07300
C1523       C  0.86316345  0.34875977  0.08088117     0.09200
C1524       C  0.84785896  0.35676127  0.09608015    -0.17600
C1525       C  0.56757828  0.29441203  0.95895738    -0.16700
C1526       C  0.58747956  0.30614515  0.94574723     0.07300
C1527       C  0.61462396  0.31532973  0.93102334     0.09200
C1528       C  0.63992241  0.32216460  0.91921914    -0.17600
C1529       C  0.84435779  0.32620967  0.92139086    -0.16700
C1530       C  0.86942719  0.31988939  0.93338892     0.07300
C1531       C  0.89757461  0.31052605  0.94771668     0.09200
C1532       C  0.91915509  0.29839981  0.96024097    -0.17600
C1533       C  0.63767293  0.12987814  0.92584976    -0.16700
C1534       C  0.62176062  0.13479134  0.94132462     0.07300
C1535       C  0.60911032  0.14533863  0.96008903     0.09200
C1536       C  0.59701927  0.15940971  0.97494635    -0.17600
C1537       C  0.88823873  0.16435627  0.97413116    -0.16700
C1538       C  0.87258933  0.15125181  0.95988053     0.07300
C1539       C  0.85547434  0.14048877  0.94199271     0.09200
C1540       C  0.83788721  0.13435690  0.92710985    -0.17600
C1541       C  0.85401574  0.40677901  0.19315554    -0.11500
C1542       C  0.88002929  0.41405043  0.20468990    -0.13100
C1543       C  0.61945534  0.41552671  0.20412791    -0.11500
C1544       C  0.64557112  0.40584187  0.19303162    -0.13100
C1545       C  0.87596239  0.10649796  0.20671045    -0.11500
C1546       C  0.85077935  0.11701795  0.19534776    -0.13100
C1547       C  0.61517723  0.11671334  0.20658937    -0.11500
C1548       C  0.64238307  0.12642101  0.19604548    -0.13100
C1549       C  0.60745717  0.14056399  0.69253105    -0.11500
C1550       C  0.59696219  0.11477053  0.70327503    -0.13100
C1551       C  0.58913603  0.36910706  0.70800912    -0.11500
C1552       C  0.59954233  0.34272862  0.69761734    -0.13100
C1553       C  0.89460403  0.12370616  0.70653444    -0.11500
C1554       C  0.88405533  0.15048056  0.69627700    -0.13100
C1555       C  0.87735080  0.35322372  0.69645874    -0.11500
C1556       C  0.88819632  0.37839551  0.70723891    -0.13100
C1557       C  0.81682804  0.08131859  0.56347275    -0.16700
C1558       C  0.83580621  0.10279015  0.57334726     0.07300
C1559       C  0.85170435  0.13025925  0.58595585     0.09200
C1560       C  0.85982854  0.15457213  0.59764539    -0.17600
C1561       C  0.86330197  0.35592783  0.59696425    -0.16700
C1562       C  0.85929061  0.37995813  0.58415447     0.07300
C1563       C  0.84997622  0.40645382  0.56890946     0.09200
C1564       C  0.83598707  0.42625801  0.55603261    -0.17600
C1565       C  0.63785339  0.15278387  0.59412251    -0.16700
C1566       C  0.64329499  0.13032888  0.58093055     0.07300
C1567       C  0.65296255  0.10437068  0.56570958     0.09200
C1568       C  0.66643219  0.08333065  0.55329246    -0.17600
C1569       C  0.67705056  0.41927489  0.56127534    -0.16700
C1570       C  0.65864873  0.40104319  0.57323728     0.07300
C1571       C  0.64248274  0.37633634  0.58757012     0.09200
C1572       C  0.63353404  0.35264408  0.59975608    -0.17600
C1573       C  0.61450292  0.15989526  0.32508660    -0.11500
C1574       C  0.60260535  0.13350219  0.31502766    -0.13100
C1575       C  0.62028784  0.36538229  0.32550404    -0.11500
C1576       C  0.60918390  0.39180411  0.31511310    -0.13100
C1577       C  0.64767915  0.16129002  0.42324068    -0.16700
C1578       C  0.65817955  0.13737428  0.43495167     0.07300
C1579       C  0.67530442  0.11065267  0.44795081     0.09200
C1580       C  0.69315541  0.08901979  0.45854826    -0.17600
C1581       C  0.66428256  0.43206039  0.46571986    -0.16700
C1582       C  0.65145880  0.41262090  0.45259640     0.07300
C1583       C  0.64300246  0.38636953  0.43732664     0.09200
C1584       C  0.63925745  0.36259582  0.42455601    -0.17600
C1585       C  0.89554870  0.12240947  0.32096844    -0.11500
C1586       C  0.88620646  0.14850128  0.33186818    -0.13100
C1587       C  0.89335348  0.35427884  0.32855138    -0.11500
C1588       C  0.90325423  0.38116053  0.31796180    -0.13100
C1589       C  0.86261098  0.15470351  0.43131839    -0.16700
C1590       C  0.85673113  0.13248566  0.44481082     0.07300
C1591       C  0.84688133  0.10697378  0.46050628     0.09200
C1592       C  0.83373784  0.08587713  0.47319056    -0.17600
C1593       C  0.86813622  0.35435366  0.42730054    -0.16700
C1594       C  0.85909022  0.37748137  0.43952577     0.07300
C1595       C  0.84231017  0.40194872  0.45353706     0.09200
C1596       C  0.82285537  0.42010211  0.46496307    -0.17600
N1597       N  0.87833974  0.75236528  0.34915994    -0.34800
N1598       N  0.87363164  0.69268462  0.38040753    -0.55400
N1599       N  0.87099125  0.75371723  0.40863562    -0.34800
N1600       N  0.87872979  0.81319994  0.37794465    -0.55400
C1601       C  0.88749867  0.71930926  0.33932232     0.28800
C1602       C  0.88976760  0.78349121  0.33809717     0.28800
C1603       C  0.87528729  0.72235417  0.42054154     0.28800
C1604       C  0.87815327  0.78591220  0.41920364     0.28800
C1605       C  0.86967591  0.66948463  0.36480899     0.37400
C1606       C  0.86475392  0.67050192  0.39618114     0.37400
C1607       C  0.87615310  0.83607459  0.36195417     0.37400
C1608       C  0.87101976  0.83657270  0.39318064     0.37400
C1609       C  0.90418128  0.72964086  0.32157680    -0.20100
C1610       C  0.90559437  0.76998469  0.32081767    -0.20100
C1611       C  0.88526098  0.73485285  0.43891768    -0.20100
C1612       C  0.88702516  0.77497493  0.43808378    -0.20100
C1613       C  0.85852031  0.63222340  0.37073927    -0.21200
C1614       C  0.85531082  0.63292182  0.39058479    -0.21200
C1615       C  0.86721482  0.87424678  0.36708143    -0.21200
C1616       C  0.86376680  0.87453348  0.38686418    -0.21200
C1617       C  0.87985493  0.68020525  0.34557047    -0.16500
C1618       C  0.88518723  0.82366390  0.34300221    -0.16500
C1619       C  0.87323845  0.82485983  0.41275456    -0.16500
C1620       C  0.86767327  0.68311289  0.41558359    -0.16500
H1621       H  0.91433155  0.71013137  0.31029826     0.16400
H1622       H  0.91705613  0.78737431  0.30889980     0.16400
H1623       H  0.89009055  0.71698382  0.45169151     0.16400
H1624       H  0.89337038  0.79398455  0.45011473     0.16400
H1625       H  0.85384134  0.60694667  0.36172419     0.14700
H1626       H  0.84766114  0.60839393  0.39984422     0.14700
H1627       H  0.86399092  0.89936293  0.35758562     0.14700
H1628       H  0.85745588  0.89996424  0.39561176     0.14700
H1629       H  0.86193448  0.75348632  0.36191908     0.27900
H1630       H  0.85871198  0.75372865  0.39490588     0.27900
N1631       N  0.63845827  0.76193149  0.40361593    -0.34800
N1632       N  0.63350258  0.82236551  0.37437065    -0.55400
N1633       N  0.63103437  0.76206972  0.34395608    -0.34800
N1634       N  0.63191775  0.70167367  0.37374259    -0.55400
C1635       C  0.63390429  0.79340114  0.41525678     0.28800
C1636       C  0.63512569  0.72963236  0.41487987     0.28800
C1637       C  0.62233909  0.79469882  0.33347481     0.28800
C1638       C  0.62042261  0.73055605  0.33328826     0.28800
C1639       C  0.63965509  0.84543014  0.38990587     0.37400
C1640       C  0.63647076  0.84560083  0.35853726     0.37400
C1641       C  0.63999538  0.67848043  0.38914795     0.37400
C1642       C  0.63299038  0.67840003  0.35801328     0.37400
C1643       C  0.62793219  0.78080801  0.43418261    -0.20100
C1644       C  0.62885760  0.74060906  0.43395912    -0.20100
C1645       C  0.60732511  0.78369793  0.31566883    -0.20100
C1646       C  0.60607406  0.74338650  0.31556986    -0.20100
C1647       C  0.64635360  0.88356733  0.38390712    -0.21200
C1648       C  0.64436049  0.88369891  0.36407815    -0.21200
C1649       C  0.64579429  0.64020215  0.38318409    -0.21200
C1650       C  0.64111094  0.64012509  0.36349628    -0.21200
C1651       C  0.63736980  0.83305276  0.40946702    -0.16500
C1652       C  0.64019549  0.69067349  0.40863659    -0.16500
C1653       C  0.62398850  0.69058544  0.33896293    -0.16500
C1654       C  0.62804795  0.83407831  0.33937442    -0.16500
H1655       H  0.62395302  0.79869516  0.44690750     0.16400
H1656       H  0.62563896  0.72162857  0.44647149     0.16400
H1657       H  0.59787277  0.80274564  0.30397639     0.16400
H1658       H  0.59553927  0.72557725  0.30380534     0.16400
H1659       H  0.65162104  0.90878605  0.39288088     0.14700
H1660       H  0.64758238  0.90916083  0.35481407     0.14700
H1661       H  0.65211723  0.61480725  0.39210921     0.14700
H1662       H  0.64327752  0.61474130  0.35428482     0.14700
H1663       H  0.64777785  0.76216966  0.38947349     0.27900
H1664       H  0.64606932  0.76149480  0.35686128     0.27900
O1665       O  0.79451646  0.92710822  0.49528277    -0.78400
O1666       O  0.78842995  0.56462165  0.53390722    -0.78400
O1667       O  0.80305613  0.52792923  0.48511465    -0.78400
O1668       O  0.80817676  0.97983170  0.53899696    -0.78300
O1669       O  0.78647970  0.58256664  0.49785064    -0.78500
O1670       O  0.78394584  0.92119771  0.53459937    -0.78400
O1671       O  0.76959259  0.53229753  0.56082155    -0.78400
O1672       O  0.77106205  0.96325781  0.47110028    -0.78400
C1673       C  0.79532944  0.93821425  0.47780117     1.11300
C1674       C  0.79028031  0.55851249  0.55240814     1.11200
C1675       C  0.80848637  0.56435518  0.48647681     1.11400
C1676       C  0.80956267  0.94333057  0.54195004     1.11200
O1677       O  0.70059397  0.92869331  0.52988167    -0.78400
O1678       O  0.71446650  0.56891797  0.48934558    -0.78400
O1679       O  0.69281396  0.98479303  0.48253193    -0.78400
O1680       O  0.69911934  0.52649560  0.54209645    -0.78400
O1681       O  0.71143632  0.58104985  0.52775095    -0.78400
O1682       O  0.71094046  0.92440294  0.48983714    -0.78400
O1683       O  0.73009457  0.96034791  0.55372067    -0.78300
O1684       O  0.73719210  0.53723803  0.46319659    -0.78400
Co1685     Co  0.74731670  0.92913609  0.51233460     1.51500
Co1686     Co  0.74879854  0.55011667  0.51242342     1.51700
Co1687     Co  0.74683980  0.50719418  0.48570427     1.51600
Co1688     Co  0.75444730  0.50450313  0.53868058     1.51500
O1689       O  0.74762094  0.48846516  0.51225769    -1.40300
C1690       C  0.70322464  0.93757096  0.54761011     1.11300
C1691       C  0.71625676  0.56422232  0.47075744     1.11300
C1692       C  0.68919188  0.94818354  0.48057174     1.11300
C1693       C  0.69194957  0.56252472  0.54009525     1.11300
N1694       N  0.86948835  0.75224443  0.67710940    -0.34800
N1695       N  0.86764483  0.81359059  0.64702124    -0.55400
N1696       N  0.86397695  0.75454557  0.61759763    -0.34800
N1697       N  0.86948986  0.69329334  0.64738642    -0.55400
C1698       C  0.87842758  0.78416196  0.68759896     0.28800
C1699       C  0.88055345  0.72047024  0.68764829     0.28800
C1700       C  0.86968758  0.78645670  0.60620824     0.28800
C1701       C  0.86932157  0.72273067  0.60641456     0.28800
C1702       C  0.86330552  0.83596447  0.66292360     0.37400
C1703       C  0.86137789  0.83728811  0.63154547     0.37400
C1704       C  0.86752605  0.66952462  0.66307144     0.37400
C1705       C  0.86240794  0.67070349  0.63188137     0.37400
C1706       C  0.89453202  0.77251158  0.70519014    -0.20100
C1707       C  0.89589858  0.73234765  0.70520482    -0.20100
C1708       C  0.87830124  0.77466870  0.58746961    -0.20100
C1709       C  0.87794656  0.73446600  0.58758455    -0.20100
C1710       C  0.85455582  0.87418906  0.65751125    -0.21200
C1711       C  0.85332838  0.87500988  0.63764616    -0.21200
C1712       C  0.85968159  0.63151842  0.65750042    -0.21200
C1713       C  0.85620734  0.63228234  0.63774122    -0.21200
C1714       C  0.87126090  0.82343706  0.68206075    -0.16500
C1715       C  0.87601582  0.68107023  0.68213058    -0.16500
C1716       C  0.86428009  0.68353198  0.61244282    -0.16500
C1717       C  0.86501128  0.82580997  0.61199807    -0.16500
H1718       H  0.90439579  0.79101586  0.71683060     0.16400
H1719       H  0.90696874  0.71400423  0.71683324     0.16400
H1720       H  0.88381291  0.79309918  0.57494566     0.16400
H1721       H  0.88318959  0.71598292  0.57517133     0.16400
H1722       H  0.85029404  0.89908100  0.66689050     0.14700
H1723       H  0.84770617  0.90056374  0.62872172     0.14700
H1724       H  0.85721582  0.60585247  0.66668247     0.14700
H1725       H  0.85062368  0.60722249  0.62870566     0.14700
H1726       H  0.85330744  0.75226689  0.66436837     0.27900
H1727       H  0.85255383  0.75425727  0.63156085     0.27900
N1728       N  0.61676236  0.74388896  0.67623980    -0.34800
N1729       N  0.62005718  0.80690730  0.64829167    -0.55400
N1730       N  0.63034145  0.75047033  0.61736558    -0.34800
N1731       N  0.62527033  0.68732925  0.64488234    -0.55400
C1732       C  0.60287798  0.77401982  0.68699268     0.28800
C1733       C  0.60529931  0.71050659  0.68517917     0.28800
C1734       C  0.62301218  0.78347148  0.60709962     0.28800
C1735       C  0.62575087  0.71998543  0.60522826     0.28800
C1736       C  0.62182512  0.82790705  0.66471837     0.37400
C1737       C  0.62973310  0.83152680  0.63368149     0.37400
C1738       C  0.62790309  0.66288658  0.66024427     0.37400
C1739       C  0.63566276  0.66636045  0.62912149     0.37400
C1740       C  0.58282840  0.75964086  0.70309607    -0.20100
C1741       C  0.58433095  0.71951751  0.70195691    -0.20100
C1742       C  0.61377323  0.77392160  0.58818338    -0.20100
C1743       C  0.61549183  0.73381357  0.58700404    -0.20100
C1744       C  0.63252271  0.86614769  0.66054074    -0.21200
C1745       C  0.63767645  0.86841753  0.64083553    -0.21200
C1746       C  0.63995792  0.62604953  0.65422804    -0.21200
C1747       C  0.64497421  0.62828739  0.63448310    -0.21200
C1748       C  0.60946100  0.81399847  0.68299911    -0.16500
C1749       C  0.61503766  0.67226578  0.67912635    -0.16500
C1750       C  0.63322367  0.68036512  0.60989517    -0.16500
C1751       C  0.62806688  0.82187477  0.61392612    -0.16500
H1752       H  0.56868601  0.77630532  0.71450100     0.16400
H1753       H  0.57154010  0.69929859  0.71235661     0.16400
H1754       H  0.60715277  0.79383103  0.57637180     0.16400
H1755       H  0.61035245  0.71681655  0.57412142     0.16400
H1756       H  0.63540673  0.89008197  0.67058166     0.14700
H1757       H  0.64533669  0.89446714  0.63267217     0.14700
H1758       H  0.64367732  0.60004277  0.66306965     0.14700
H1759       H  0.65339081  0.60439032  0.62510588     0.14700
H1760       H  0.63640561  0.74584776  0.66459688     0.27900
H1761       H  0.64286216  0.74925833  0.63106170     0.27900
C1762       C  0.91404635  0.59580095  0.30749960     0.44200
N1763       N  0.95097625  0.57812979  0.28380039     0.03100
C1764       C  0.94645581  0.91514355  0.22537705    -0.04800
H1765       H  0.97716413  0.87650182  0.29491025     0.08600
C1766       C  0.60018149  0.95859631  0.29641242    -0.05100
Co1767     Co  0.92559078  0.00409205  0.26507821     0.74200
N1768       N  0.96188497  0.93245726  0.28245310    -0.24300
Co1769     Co  0.50362914  0.93810859  0.26039019     0.74100
C1770       C  0.58849267  0.91935998  0.30289904     0.44300
N1771       N  0.56717995  0.55951632  0.28369620     0.02700
N1772       N  0.54818239  0.93903986  0.28109575     0.02800
N1773       N  0.89643963  0.95800447  0.23105349    -0.45100
H1774       H  0.87526941  0.54056379  0.30503505     0.08600
N1775       N  0.93220575  0.95728635  0.28523338     0.03100
N1776       N  0.54818527  0.94470562  0.23914923     0.02900
C1777       C  0.59247045  0.93486109  0.21722237     0.44500
N1778       N  0.53732037  0.58463348  0.28243347    -0.23700
C1779       C  0.89139810  0.55225060  0.23118180    -0.04700
N1780       N  0.94474876  0.60662004  0.29627084    -0.44800
N1781       N  0.55885345  0.91998794  0.22524343    -0.45100
C1782       C  0.90172193  0.58723276  0.22044855     0.44300
N1783       N  0.92609515  0.96286480  0.24323311     0.03100
N1784       N  0.53840861  0.58299562  0.24034685    -0.23800
N1785       N  0.92621216  0.54850029  0.28608735    -0.24300
N1786       N  0.56838756  0.55803797  0.24173975     0.02800
H1787       H  0.53118182  0.63578717  0.22312000     0.08600
H1788       H  0.62881551  0.98773658  0.22646683     0.08700
N1789       N  0.95617067  0.93853248  0.24031317    -0.24300
N1790       N  0.57301065  0.96861805  0.28296622    -0.23900
N1791       N  0.94661604  0.57618464  0.24173159     0.03100
C1792       C  0.92243253  0.91003315  0.30557825     0.44500
C1793       C  0.54310142  0.61408445  0.29467044    -0.05200
N1794       N  0.57396751  0.97340768  0.24101308    -0.23900
H1795       H  0.62646893  0.97508812  0.29990634     0.08700
N1796       N  0.90694501  0.94430006  0.29876709    -0.45100
H1797       H  0.52498570  0.64022304  0.29565572     0.08700
C1798       C  0.58720012  0.59711747  0.21924120     0.44400
C1799       C  0.90105127  0.55733475  0.30073948    -0.04700
Co1800     Co  0.49314823  0.58104131  0.26173769     0.73800
N1801       N  0.59473957  0.57155485  0.29604248    -0.44900
C1802       C  0.90675491  0.92865686  0.21927917     0.44600
N1803       N  0.93593778  0.60127631  0.22786956    -0.44800
Co1804     Co  0.57113694  0.01480856  0.26273455     0.73900
C1805       C  0.60259533  0.96971880  0.22769368    -0.05200
C1806       C  0.95841485  0.90228668  0.29473610    -0.04700
N1807       N  0.92056879  0.54770006  0.24405249    -0.24300
N1808       N  0.55636543  0.90931806  0.29274463    -0.45000
H1809       H  0.96391159  0.89074374  0.22013279     0.08600
C1810       C  0.54789751  0.60954191  0.22648879    -0.05100
Cl1811     Cl  0.49836816  0.00950900  0.26253959    -0.48100
C1812       C  0.58073668  0.60542760  0.30374915     0.44400
H1813       H  0.86529225  0.53413008  0.23006535     0.08600
N1814       N  0.59769566  0.56536024  0.22947332    -0.44900
O1815       O  0.96289599  0.74936328  0.97044041    -0.78400
O1816       O  0.53584378  0.80900946  0.03831928    -0.78400
O1817       O  0.90817670  0.76699602  0.02897974    -0.78400
O1818       O  0.55694404  0.77951405  0.99158058    -0.78300
O1819       O  0.95435051  0.80880630  0.03744377    -0.78500
O1820       O  0.52521943  0.74623283  0.97008869    -0.78400
O1821       O  0.58205021  0.76726453  0.02865030    -0.78400
O1822       O  0.93252112  0.78262932  0.99252596    -0.78400
C1823       C  0.93989355  0.77699972  0.97492145     1.11300
C1824       C  0.57179992  0.79831740  0.03757798     1.11200
C1825       C  0.91852243  0.79852248  0.03710563     1.11400
C1826       C  0.54850753  0.77344739  0.97413778     1.11200
O1827       O  0.53683022  0.68015474  0.98769003    -0.78400
O1828       O  0.95445719  0.73085889  0.05332696    -0.78400
O1829       O  0.89698963  0.71159351  0.99857471    -0.78400
O1830       O  0.54269102  0.69265134  0.02934682    -0.78400
O1831       O  0.53543259  0.73206898  0.05410998    -0.78400
O1832       O  0.95013119  0.68144334  0.98657823    -0.78400
O1833       O  0.59175690  0.70837161  0.99877644    -0.78300
O1834       O  0.94806554  0.69256292  0.02802191    -0.78400
Co1835     Co  0.49372494  0.72156711  0.99085628     1.51500
Co1836     Co  0.49484047  0.76975581  0.04424786     1.51700
Co1837     Co  0.94206493  0.73740661  0.00999904     1.51600
Co1838     Co  0.54789232  0.73617168  0.01029373     1.51500
O1839       O  0.49510458  0.75569282  0.01599511    -1.40300
C1840       C  0.57491741  0.68277846  0.98833511     1.11300
C1841       C  0.94409679  0.69871041  0.04593561     1.11300
C1842       C  0.91221985  0.68581639  0.98753397     1.11300
C1843       C  0.54691963  0.69989843  0.04711639     1.11300
N1844       N  0.80432758  0.85558946  0.87320903    -0.34800
N1845       N  0.74401574  0.87795485  0.84496359    -0.55400
N1846       N  0.68256314  0.85472745  0.87220578    -0.34800
N1847       N  0.74275495  0.83602717  0.90109233    -0.55400
C1848       C  0.82729903  0.87331913  0.85964687     0.28800
C1849       C  0.82638120  0.85216274  0.88946765     0.28800
C1850       C  0.65994722  0.87231407  0.85852422     0.28800
C1851       C  0.65937205  0.85003219  0.88808174     0.28800
C1852       C  0.77667443  0.88123070  0.83358762     0.37400
C1853       C  0.71220966  0.88136480  0.83318231     0.37400
C1854       C  0.77462441  0.82396468  0.91134638     0.37400
C1855       C  0.71037205  0.82271111  0.91061737     0.37400
C1856       C  0.86454669  0.88062513  0.86726934    -0.20100
C1857       C  0.86394671  0.86733958  0.88608185    -0.20100
C1858       C  0.62181554  0.87830165  0.86571037    -0.20100
C1859       C  0.62144857  0.86424126  0.88436233    -0.20100
C1860       C  0.76553365  0.88742856  0.81451192    -0.21200
C1861       C  0.72470898  0.88755183  0.81426442    -0.21200
C1862       C  0.76244350  0.80314731  0.92761525    -0.21200
C1863       C  0.72167704  0.80231493  0.92714634    -0.21200
C1864       C  0.81628368  0.88125315  0.84030780    -0.16500
C1865       C  0.81429096  0.83390271  0.90692334    -0.16500
C1866       C  0.67080951  0.83134481  0.90543645    -0.16500
C1867       C  0.67211790  0.88110691  0.83941342    -0.16500
H1868       H  0.88967167  0.89401224  0.86001143     0.16400
H1869       H  0.88854328  0.86846438  0.89607132     0.16400
H1870       H  0.59671272  0.89118792  0.85825455     0.16400
H1871       H  0.59599395  0.86419574  0.89401714     0.16400
H1872       H  0.78479738  0.89185428  0.80209109     0.14700
H1873       H  0.70634002  0.89200487  0.80162913     0.14700
H1874       H  0.78094737  0.79033075  0.93876613     0.14700
H1875       H  0.70255466  0.78877833  0.93789386     0.14700
H1876       H  0.77726178  0.84283104  0.87081443     0.27900
H1877       H  0.71028212  0.84271632  0.87016345     0.27900
N1878       N  0.73846464  0.62644200  0.90502671    -0.34800
N1879       N  0.80129617  0.61835620  0.87660636    -0.55400
N1880       N  0.74104694  0.60670544  0.84700253    -0.34800
N1881       N  0.67801139  0.61794148  0.87562820    -0.55400
C1882       C  0.77003080  0.63908810  0.91519544     0.28800
C1883       C  0.70553558  0.63820941  0.91467763     0.28800
C1884       C  0.77410093  0.60962672  0.83578359     0.28800
C1885       C  0.70908060  0.61019535  0.83526625     0.28800
C1886       C  0.82374944  0.61810232  0.89279093     0.37400
C1887       C  0.82531409  0.60728606  0.86187189     0.37400
C1888       C  0.65430013  0.61659986  0.89148386     0.37400
C1889       C  0.65544131  0.60745885  0.86047085     0.37400
C1890       C  0.75697715  0.65932061  0.93137519    -0.20100
C1891       C  0.71631645  0.65877604  0.93105366    -0.20100
C1892       C  0.76296341  0.61464239  0.81661527    -0.20100
C1893       C  0.72202459  0.61505248  0.81629293    -0.20100
C1894       C  0.86242781  0.60740277  0.88831210    -0.21200
C1895       C  0.86345651  0.60054103  0.86871179    -0.21200
C1896       C  0.61619493  0.60580613  0.88639831    -0.21200
C1897       C  0.61685983  0.60009207  0.86670016    -0.21200
C1898       C  0.81013674  0.63002061  0.91121310    -0.16500
C1899       C  0.66625618  0.62780623  0.91014228    -0.16500
C1900       C  0.66870225  0.60653092  0.84101552    -0.16500
C1901       C  0.81391259  0.60559510  0.84221149    -0.16500
H1902       H  0.77486158  0.67260801  0.94247121     0.16400
H1903       H  0.69695370  0.67162556  0.94185803     0.16400
H1904       H  0.78232253  0.61737397  0.80411242     0.16400
H1905       H  0.70386445  0.61810479  0.80349233     0.16400
H1906       H  0.88736036  0.60529889  0.89808592     0.14700
H1907       H  0.88943713  0.59199795  0.86042009     0.14700
H1908       H  0.59053965  0.60300569  0.89582426     0.14700
H1909       H  0.59175657  0.59175600  0.85796136     0.14700
H1910       H  0.73928506  0.60630253  0.89383470     0.27900
H1911       H  0.74038971  0.59835624  0.86147051     0.27900
C1912       C  0.90894021  0.90831006  0.71729284     0.44200
N1913       N  0.92191935  0.95636206  0.73563005     0.03100
C1914       C  0.59328689  0.56706729  0.73264779    -0.04800
H1915       H  0.61470623  0.91401367  0.74386670     0.08600
C1916       C  0.54611027  0.93067966  0.80798295    -0.05100
Co1917     Co  0.99550042  0.99707630  0.72247798     0.74200
N1918       N  0.56562101  0.95311973  0.73754126    -0.24300
Co1919     Co  0.56605378  0.99678688  0.75854901     0.74100
C1920       C  0.58439541  0.91420324  0.80191110     0.43300
N1921       N  0.94603358  0.95672244  0.79270881     0.02700
N1922       N  0.56413884  0.95528894  0.78049353     0.02800
N1923       N  0.54633178  0.56533897  0.70929643    -0.45100
H1924       H  0.96331997  0.91970389  0.69794653     0.08600
N1925       N  0.53850011  0.95335178  0.72382985     0.03100
N1926       N  0.56463895  0.53982118  0.77981369     0.02900
C1927       C  0.58437051  0.58175617  0.80065571     0.44500
N1928       N  0.91957281  0.95712967  0.77867302    -0.23700
C1929       C  0.94801003  0.57033316  0.70944361    -0.04700
N1930       N  0.89550634  0.92834738  0.73278453    -0.44800
N1931       N  0.59427060  0.56350849  0.78404970    -0.45100
C1932       C  0.91288969  0.59094200  0.71618247     0.44300
N1933       N  0.54007841  0.53840897  0.72276784     0.03100
N1934       N  0.91996189  0.54189561  0.77829497    -0.23800
N1935       N  0.95099859  0.95579466  0.72274774    -0.24300
N1936       N  0.94614374  0.54140003  0.79244327     0.02800
H1937       H  0.86238940  0.56880089  0.77547784     0.08600
H1938       H  0.53059749  0.56962775  0.82037250     0.08700
N1939       N  0.56700394  0.53865888  0.73655139    -0.24300
N1940       N  0.53581588  0.95574949  0.79379572    -0.23900
N1941       N  0.92351381  0.54218126  0.73500392     0.03100
C1942       C  0.57345745  0.90241166  0.71808842     0.44500
C1943       C  0.89100571  0.93138574  0.78299982    -0.05200
N1944       N  0.53591481  0.54066189  0.79293068    -0.23900
H1945       H  0.53150172  0.92839273  0.82193358     0.08700
N1946       N  0.54228220  0.92364013  0.71179632    -0.45100
H1947       H  0.86318192  0.92871694  0.77538375     0.08700
C1948       C  0.90063470  0.58162645  0.80195967     0.44400
C1949       C  0.94518882  0.92645721  0.71047492    -0.04700
Co1950     Co  0.92042652  0.99946901  0.75684834     0.73800
N1951       N  0.93629693  0.93228436  0.80691556    -0.44900
C1952       C  0.57916133  0.58447992  0.71465679     0.44600
N1953       N  0.89875114  0.57195128  0.73198370    -0.44800
Co1954     Co  0.99101633  0.99862927  0.79330485     0.73900
C1955       C  0.54569727  0.56643675  0.80660130    -0.05200
C1956       C  0.58946431  0.92188563  0.73502045    -0.04700
N1957       N  0.95242196  0.54072161  0.72200744    -0.24300
N1958       N  0.59370778  0.93128804  0.78489198    -0.45000
H1959       H  0.61949930  0.57360529  0.74096890     0.08600
C1960       C  0.89049533  0.56667905  0.78293142    -0.05100
Cl1961     Cl  0.99322476  0.99805774  0.75784514    -0.48100
C1962       C  0.90219284  0.91475090  0.80165119     0.44400
H1963       H  0.96669574  0.57620132  0.69697582     0.08600
N1964       N  0.93528580  0.56424021  0.80699220    -0.44900
N1965       N  0.74727945  0.63329325  0.17677745    -0.34800
N1966       N  0.68629032  0.63814941  0.14720679    -0.55400
N1967       N  0.74715158  0.63859213  0.11722403    -0.34800
N1968       N  0.80828202  0.63133961  0.14639071    -0.55400
C1969       C  0.71432415  0.62463645  0.18738842     0.28800
C1970       C  0.77939073  0.62106919  0.18698212     0.28800
C1971       C  0.71435397  0.63305603  0.10639339     0.28800
C1972       C  0.77907218  0.63047098  0.10593254     0.28800
C1973       C  0.66328956  0.64355625  0.16306515     0.37400
C1974       C  0.66334927  0.64671051  0.13175039     0.37400
C1975       C  0.83194908  0.63368860  0.16205646     0.37400
C1976       C  0.83173650  0.63780211  0.13073588     0.37400
C1977       C  0.72573895  0.60740742  0.20473410    -0.20100
C1978       C  0.76669861  0.60518972  0.20448823    -0.20100
C1979       C  0.72558139  0.62142259  0.08794846    -0.20100
C1980       C  0.76645560  0.61988794  0.08764374    -0.20100
C1981       C  0.62555057  0.65569788  0.15766505    -0.21200
C1982       C  0.62561808  0.65779527  0.13781928    -0.21200
C1983       C  0.87072855  0.64134058  0.15631288    -0.21200
C1984       C  0.87056275  0.64410829  0.13647296    -0.21200
C1985       C  0.67441370  0.63303340  0.18205166    -0.16500
C1986       C  0.81979503  0.62521292  0.18123406    -0.16500
C1987       C  0.81916295  0.63504248  0.11133661    -0.16500
C1988       C  0.67488976  0.64111070  0.11229054    -0.16500
H1989       H  0.70656119  0.59744125  0.21637771     0.16400
H1990       H  0.78503150  0.59316146  0.21591270     0.16400
H1991       H  0.70635074  0.61530494  0.07586078     0.16400
H1992       H  0.78480519  0.61227092  0.07529934     0.16400
H1993       H  0.60030401  0.66142576  0.16702564     0.14700
H1994       H  0.60044199  0.66551469  0.12887524     0.14700
H1995       H  0.89657088  0.64397052  0.16544463     0.14700
H1996       H  0.89624883  0.64925259  0.12731461     0.14700
H1997       H  0.74805108  0.64981460  0.16410046     0.27900
H1998       H  0.74789306  0.65187044  0.13067675     0.27900
N1999       N  0.74907968  0.86420652  0.11755404    -0.34800
N2000       N  0.81095086  0.88129390  0.14548040    -0.55400
N2001       N  0.74972103  0.89854175  0.17361006    -0.34800
N2002       N  0.68788272  0.87922264  0.14519243    -0.55400
C2003       C  0.78168534  0.84899108  0.10901119     0.28800
C2004       C  0.71736831  0.84848032  0.10867951     0.28800
C2005       C  0.78227261  0.89783476  0.18519218     0.28800
C2006       C  0.71695804  0.89673167  0.18512399     0.28800
C2007       C  0.83326519  0.87953956  0.12921317     0.37400
C2008       C  0.83424328  0.89631355  0.15935817     0.37400
C2009       C  0.66508244  0.87728069  0.12915653     0.37400
C2010       C  0.66485332  0.89430818  0.15933960     0.37400
C2011       C  0.77061849  0.82275051  0.09480796    -0.20100
C2012       C  0.72991370  0.82247922  0.09458909    -0.20100
C2013       C  0.76989834  0.89629430  0.20436224    -0.20100
C2014       C  0.72884540  0.89561671  0.20432555    -0.20100
C2015       C  0.87114117  0.89333980  0.13269506    -0.21200
C2016       C  0.87184781  0.90382652  0.15188979    -0.21200
C2017       C  0.62716712  0.89095876  0.13309114    -0.21200
C2018       C  0.62693491  0.90167143  0.15227287    -0.21200
C2019       C  0.82062661  0.86210879  0.11196048    -0.16500
C2020       C  0.67780568  0.86026159  0.11164797    -0.16500
C2021       C  0.67673241  0.89856053  0.17881384    -0.16500
C2022       C  0.82264154  0.90038391  0.17891736    -0.16500
H2023       H  0.78985769  0.80637724  0.08518533     0.16400
H2024       H  0.71167326  0.80582529  0.08482870     0.16400
H2025       H  0.78849565  0.89596589  0.21708329     0.16400
H2026       H  0.70988881  0.89473460  0.21703347     0.16400
H2027       H  0.89588780  0.89464785  0.12263157     0.14700
H2028       H  0.89723163  0.91517853  0.15952172     0.14700
H2029       H  0.60219318  0.89227443  0.12331402     0.14700
H2030       H  0.60160369  0.91312242  0.16016766     0.14700
H2031       H  0.74866472  0.88839796  0.12659465     0.27900
H2032       H  0.74954062  0.90396064  0.15881433     0.27900
C2033       C  0.63910464  0.60093592  0.82609295    -0.11500
C2034       C  0.61403484  0.59393006  0.81420279    -0.13100
C2035       C  0.87093626  0.59268896  0.81605641    -0.11500
C2036       C  0.84500703  0.59948385  0.82778413    -0.13100
C2037       C  0.61477126  0.90075074  0.81490009    -0.11500
C2038       C  0.64134600  0.89146043  0.82565935    -0.13100
C2039       C  0.84761512  0.89146850  0.82672207    -0.11500
C2040       C  0.87342613  0.90092851  0.81547646    -0.13100
C2041       C  0.56920305  0.67400712  0.05940421    -0.16700
C2042       C  0.59144434  0.65942758  0.07104988     0.07300
C2043       C  0.61965804  0.64898996  0.08525034     0.09200
C2044       C  0.64458155  0.64399242  0.09750591    -0.17600
C2045       C  0.84888878  0.63769961  0.09608797    -0.16700
C2046       C  0.87335466  0.64341599  0.08356400     0.07300
C2047       C  0.90113297  0.65537498  0.06934820     0.09200
C2048       C  0.92287361  0.67149252  0.05793240    -0.17600
C2049       C  0.59922768  0.81809755  0.04999353    -0.16700
C2050       C  0.61631306  0.83214184  0.06360177     0.07300
C2051       C  0.63341942  0.84526727  0.08108106     0.09200
C2052       C  0.65035976  0.85363629  0.09586181    -0.17600
C2053       C  0.89167502  0.81947654  0.04917666    -0.16700
C2054       C  0.87677354  0.83490641  0.06296811     0.07300
C2055       C  0.86317205  0.84882037  0.08086495     0.09200
C2056       C  0.84785630  0.85683365  0.09606076    -0.17600
C2057       C  0.56760131  0.79442325  0.95894346    -0.16700
C2058       C  0.58748895  0.80616563  0.94573001     0.07300
C2059       C  0.61461712  0.81536376  0.93100041     0.09200
C2060       C  0.63990958  0.82220393  0.91919346    -0.17600
C2061       C  0.84435150  0.82619426  0.92137497    -0.16700
C2062       C  0.86942816  0.81985575  0.93336730     0.07300
C2063       C  0.89758619  0.81048245  0.94768875     0.09200
C2064       C  0.91917375  0.79836194  0.96021157    -0.17600
C2065       C  0.63772163  0.62988873  0.92586940    -0.16700
C2066       C  0.62182015  0.63478828  0.94134782     0.07300
C2067       C  0.60916816  0.64533043  0.96011243     0.09200
C2068       C  0.59706656  0.65940804  0.97496599    -0.17600
C2069       C  0.88827746  0.66435432  0.97411876    -0.16700
C2070       C  0.87262947  0.65125484  0.95986633     0.07300
C2071       C  0.85551036  0.64050237  0.94197743     0.09200
C2072       C  0.83791795  0.63438139  0.92709467    -0.17600
C2073       C  0.85397414  0.90677745  0.19314706    -0.11500
C2074       C  0.87999220  0.91406014  0.20467698    -0.13100
C2075       C  0.61941364  0.91550829  0.20412141    -0.11500
C2076       C  0.64553253  0.90581093  0.19302891    -0.13100
C2077       C  0.87593567  0.60647260  0.20673001    -0.11500
C2078       C  0.85075880  0.61699130  0.19536275    -0.13100
C2079       C  0.61515223  0.61666957  0.20656122    -0.11500
C2080       C  0.64235839  0.62638249  0.19601821    -0.13100
C2081       C  0.60749511  0.64054824  0.69252894    -0.11500
C2082       C  0.59698901  0.61474855  0.70326834    -0.13100
C2083       C  0.58913359  0.86911056  0.70799865    -0.11500
C2084       C  0.59954791  0.84272916  0.69761065    -0.13100
C2085       C  0.89466472  0.62373922  0.70655306    -0.11500
C2086       C  0.88413391  0.65051558  0.69629357    -0.13100
C2087       C  0.87732519  0.85325049  0.69644547    -0.11500
C2088       C  0.88817323  0.87842556  0.70722329    -0.13100
C2089       C  0.81681970  0.58128938  0.56348545    -0.16700
C2090       C  0.83580744  0.60275100  0.57336217     0.07300
C2091       C  0.85172985  0.63021206  0.58596960     0.09200
C2092       C  0.85987604  0.65452611  0.59765581    -0.17600
C2093       C  0.86325490  0.85589677  0.59695748    -0.16700
C2094       C  0.85926171  0.87993799  0.58415150     0.07300
C2095       C  0.84997215  0.90645285  0.56891127     0.09200
C2096       C  0.83599698  0.92627057  0.55603605    -0.17600
C2097       C  0.63790472  0.65278076  0.59412563    -0.16700
C2098       C  0.64333533  0.63032636  0.58093276     0.07300
C2099       C  0.65298300  0.60436872  0.56570928     0.09200
C2100       C  0.66643863  0.58332645  0.55329000    -0.17600
C2101       C  0.67706033  0.91929231  0.56128152    -0.16700
C2102       C  0.65864770  0.90105582  0.57323816     0.07300
C2103       C  0.64246383  0.87634033  0.58756321     0.09200
C2104       C  0.63350487  0.85264282  0.59974528    -0.17600
C2105       C  0.61449925  0.65989390  0.32510549    -0.11500
C2106       C  0.60260567  0.63350304  0.31504402    -0.13100
C2107       C  0.62026778  0.86537959  0.32549827    -0.11500
C2108       C  0.60914170  0.89179180  0.31510603    -0.13100
C2109       C  0.64765270  0.66132172  0.42326677    -0.16700
C2110       C  0.65814946  0.63740229  0.43497685     0.07300
C2111       C  0.67527570  0.61067202  0.44797131     0.09200
C2112       C  0.69313126  0.58903060  0.45856274    -0.17600
C2113       C  0.66430063  0.93208114  0.46572397    -0.16700
C2114       C  0.65147556  0.91265197  0.45259776     0.07300
C2115       C  0.64302206  0.88641269  0.43732362     0.09200
C2116       C  0.63928190  0.86264302  0.42455137    -0.17600
C2117       C  0.89561717  0.62239730  0.32099508    -0.11500
C2118       C  0.88626127  0.64849765  0.33188807    -0.13100
C2119       C  0.89331433  0.85428776  0.32854416    -0.11500
C2120       C  0.90319738  0.88117037  0.31795009    -0.13100
C2121       C  0.86253856  0.65472245  0.43132592    -0.16700
C2122       C  0.85668022  0.63249061  0.44481435     0.07300
C2123       C  0.84685818  0.60696027  0.46050552     0.09200
C2124       C  0.83372921  0.58585208  0.47318791    -0.17600
C2125       C  0.86815741  0.85439702  0.42730148    -0.16700
C2126       C  0.85912493  0.87752316  0.43952960     0.07300
C2127       C  0.84234978  0.90197829  0.45354721     0.09200
C2128       C  0.82289080  0.92012012  0.46497592    -0.17600
loop_ 
_geom_bond_atom_site_label_1 
_geom_bond_atom_site_label_2 
_geom_bond_distance 
_geom_bond_site_symmetry_2 
_ccdc_geom_bond_type 
N1            C6   1.362       .  A
N1            C5   1.357       .  A
N1           H33   1.038       .  S
N2            C9   1.351       .  A
N2           C10   1.356       .  A
N3            C8   1.350       .  A
N3            C7   1.355       .  A
N3           H34   1.037       .  S
N4           C11   1.352       .  A
N4           C12   1.350       .  A
C5           C13   1.389       .  A
C5           C21   1.427       .  A
C6           C22   1.425       .  A
C6           C14   1.386       .  A
C7           C15   1.387       .  A
C7           C24   1.413       .  A
C8           C23   1.411       .  A
C8           C16   1.388       .  A
C9           C21   1.417       .  A
C9           C17   1.389       .  A
C10          C24   1.416       .  A
C10          C18   1.385       .  A
C11          C19   1.387       .  A
C11          C22   1.410       .  A
C12          C20   1.388       .  A
C12          C23   1.410       .  A
C13          C14   1.382       .  A
C13          H25   1.082       .  S
C14          H26   1.082       .  S
C15          C16   1.375       .  A
C15          H27   1.082       .  S
C16          H28   1.082       .  S
C17          C18   1.375       .  A
C17          H29   1.082       .  S
C18          H30   1.082       .  S
C19          C20   1.371       .  A
C19          H31   1.082       .  S
C20          H32   1.082       .  S
C21         C522   1.458       .  S
C22         C523   1.467       .  S
C23         C529   1.439       .  S
C24         C525   1.463       .  S
N35          C40   1.351       .  A
N35          C39   1.356       .  A
N35          H67   1.026       .  S
N36          C43   1.355       .  A
N36          C44   1.351       .  A
N37          C42   1.361       .  A
N37          C41   1.357       .  A
N37          H68   1.030       .  S
N38          C45   1.351       .  A
N38          C46   1.352       .  A
C39          C47   1.387       .  A
C39          C55   1.416       .  A
C40          C56   1.413       .  A
C40          C48   1.388       .  A
C41          C49   1.389       .  A
C41          C58   1.425       .  A
C42          C57   1.424       .  A
C42          C50   1.386       .  A
C43          C55   1.415       .  A
C43          C51   1.385       .  A
C44          C58   1.415       .  A
C44          C52   1.389       .  A
C45          C53   1.388       .  A
C45          C56   1.413       .  A
C46          C54   1.386       .  A
C46          C57   1.412       .  A
C47          C48   1.375       .  A
C47          H59   1.082       .  S
C48          H60   1.082       .  S
C49          C50   1.380       .  A
C49          H61   1.082       .  S
C50          H62   1.082       .  S
C51          C52   1.372       .  A
C51          H63   1.082       .  S
C52          H64   1.082       .  S
C53          C54   1.371       .  A
C53          H65   1.082       .  S
C54          H66   1.082       .  S
C55         C520   1.461       .  S
C56         C513   1.441       .  S
C57         C509   1.464       .  S
C58         C511   1.455       .  S
O69          C77   1.264       .  A
O69         Co89   1.973       .  S
O70          C78   1.296       .  A
O70         Co90   2.067       .  S
O71          C79   1.265       .  A
O71         Co91   2.024       .  S
O72          C80   1.264       .  A
O72        Co624   1.991       .  S
O73          C79   1.245       .  A
O73         Co90   1.959       .  S
O74          C80   1.262       .  A
O74         Co89   1.994       .  S
O75          C78   1.273       .  A
O75         Co92   1.882       .  S
O76          C77   1.267       .  A
O76        Co623   1.985       .  S
C77         C532   1.421       .  S
C78         C493   1.420       .  S
C79         C528   1.446       .  S
C80         C500   1.441       .  S
O81          C94   1.268       .  A
O81         Co89   1.979       .  S
O82          C95   1.297       .  A
O82         Co90   2.072       .  S
O83          C96   1.267       .  A
O83        Co623   1.992       .  S
O84          C97   1.261       .  A
O84         Co92   2.018       .  S
O85          C97   1.244       .  A
O85         Co90   1.951       .  S
O86          C96   1.264       .  A
O86         Co89   1.993       .  S
O87          C94   1.273       .  A
O87        Co624   2.003       .  S
O88          C95   1.272       .  A
O88         Co91   1.886       .  S
Co89        O625   2.030       .  S
Co90         O93   2.110   1_545  S
Co91        O608   1.985   1_545  S
Co91        O615   1.992   1_545  S
Co91         O93   1.939   1_545  S
Co92        O604   1.991   1_545  S
Co92        O619   2.003   1_545  S
Co92         O93   1.926   1_545  S
O93        Co621   2.030       .  S
C94         C505   1.430       .  S
C95         C516   1.423       .  S
C96         C517   1.443       .  S
C97         C504   1.438       .  S
N98         C103   1.355       .  A
N98         C102   1.352       .  A
N98         H130   1.038       .  S
N99         C106   1.351       .  A
N99         C107   1.354       .  A
N100        C105   1.350       .  A
N100        C104   1.355       .  A
N100        H131   1.036       .  S
N101        C108   1.351       .  A
N101        C109   1.349       .  A
C102        C110   1.389       .  A
C102        C118   1.414       .  A
C103        C119   1.413       .  A
C103        C111   1.386       .  A
C104        C112   1.387       .  A
C104        C121   1.415       .  A
C105        C120   1.412       .  A
C105        C113   1.388       .  A
C106        C118   1.414       .  A
C106        C114   1.388       .  A
C107        C121   1.414       .  A
C107        C115   1.385       .  A
C108        C116   1.386       .  A
C108        C119   1.409       .  A
C109        C117   1.389       .  A
C109        C120   1.411       .  A
C110        C111   1.374       .  A
C110        H122   1.082       .  S
C111        H123   1.082       .  S
C112        C113   1.375       .  A
C112        H124   1.082       .  S
C113        H125   1.082       .  S
C114        C115   1.374       .  A
C114        H126   1.082       .  S
C115        H127   1.082       .  S
C116        C117   1.371       .  A
C116        H128   1.082       .  S
C117        H129   1.082       .  S
C118        C491   1.446       .  S
C119        C490   1.452       .  S
C120        C496   1.439       .  S
C121        C497   1.458       .  S
N132        C137   1.351       .  A
N132        C136   1.355       .  A
N132        H164   1.040       .  S
N133        C140   1.350       .  A
N133        C141   1.349       .  A
N134        C139   1.353       .  A
N134        C138   1.351       .  A
N134        H165   1.039       .  S
N135        C142   1.349       .  A
N135        C143   1.352       .  A
C136        C144   1.386       .  A
C136        C152   1.411       .  A
C137        C153   1.413       .  A
C137        C145   1.389       .  A
C138        C146   1.387       .  A
C138        C155   1.411       .  A
C139        C154   1.412       .  A
C139        C147   1.387       .  A
C140        C152   1.407       .  A
C140        C148   1.386       .  A
C141        C155   1.408       .  A
C141        C149   1.387       .  A
C142        C150   1.388       .  A
C142        C153   1.411       .  A
C143        C151   1.386       .  A
C143        C154   1.411       .  A
C144        C145   1.376       .  A
C144        H156   1.082       .  S
C145        H157   1.082       .  S
C146        C147   1.376       .  A
C146        H158   1.082       .  S
C147        H159   1.082       .  S
C148        C149   1.373       .  A
C148        H160   1.082       .  S
C149        H161   1.082       .  S
C150        C151   1.375       .  A
C150        H162   1.082       .  S
C151        H163   1.082       .  S
C152        C488   1.450       .  S
C153        C485   1.443       .  S
C154        C501   1.454       .  S
C155        C508   1.444       .  S
C166        N184   1.340       .  A
C166        C521   1.443       .  S
C166        C203   1.469       .  S
N167        N184   1.321       .  A
N167        N189   1.324       .  A
N167      Co1268   2.078       .  S
C168        N193   1.354       .  A
C168        H213   1.081       .  S
C168        C206   1.474       .  S
H169        C210   1.082       .  S
C170        N194   1.349       .  A
C170        H199   1.082       .  S
C170        C174   1.467       .  S
Co171       N179   2.125       .  S
Co171       N187   2.074       .  S
Co171       N721   2.109       .  S
Co171       N743   2.082       .  S
Co171     Cl1279   2.462       .  S
N172        C210   1.336       .  A
N172        N179   1.322       .  A
N172      Co1237   2.075       .  S
Co173       N176   2.080       .  S
Co173       N180   2.103       .  S
Co173      N1236   2.075   1_455  S
Co173      N1257   2.122   1_455  S
Co173      Cl215   2.453   1_455  S
C174        N212   1.341       .  A
C174        C512   1.439       .  S
N175        N182   1.321       .  A
N175        N205   1.333       .  A
N175       Co740   2.117       .  S
N176        N194   1.323       .  A
N176        N212   1.321       .  A
N177        C206   1.340       .  A
N177        N187   1.322       .  A
H178        C203   1.082       .  S
N179        N200   1.335       .  A
N180        N198   1.321       .  A
N180        N185   1.331       .  A
C181        N185   1.356       .  A
C181        C479   1.439       .  S
C181        C209   1.443       .  S
N182        C197   1.336       .  A
N182       Co204   2.074   1_455  S
C183        N211   1.337       .  A
C183        H217   1.082       .  S
C183        C186   1.446       .  S
C186        N207   1.356       .  A
C186        C481   1.442       .  S
N187        N193   1.322       .  A
N188        C214   1.352       .  A
N188        N190   1.322       .  A
N188       Co204   2.116   1_455  S
N189        C203   1.351       .  A
N189       Co703   2.109       .  S
N190        N218   1.320       .  A
N190       Co740   2.066       .  S
H191        C214   1.081       .  S
H192        C209   1.082       .  S
N193      Co1237   2.122       .  S
N194       Co208   2.102       .  S
N195        N207   1.331       .  A
N195        N211   1.322       .  A
N195      Co1268   2.104       .  S
C196        N200   1.362       .  A
C196        C524   1.453       .  S
C196        C210   1.444       .  S
C197        H201   1.082       .  S
C197        C216   1.445       .  S
N198        C209   1.334       .  A
N198       Co208   2.073       .  S
C202        N218   1.339       .  A
C202        C483   1.445       .  S
C202        C214   1.473       .  S
Co204      N1231   2.078       .  S
Co204      N1259   2.104       .  S
Co204      Cl747   2.453       .  S
N205        C216   1.360       .  A
C206        C478   1.450       .  S
Co208       N707   2.117       .  S
Co208       N722   2.066       .  S
Co208      Cl215   2.457   1_455  S
N211       Co703   2.082       .  S
Cl215     Co1235   2.462       .  S
Cl215      Co736   2.453       .  S
C216        C510   1.449       .  S
O219        C227   1.258       .  A
O219      Co1303   1.990       .  S
O220        C228   1.263       .  A
O220       Co240   1.970   1_455  S
O221        C229   1.271       .  A
O221       Co241   2.008       .  S
O222        C230   1.259       .  A
O222       Co242   1.983   1_556  S
O223        C229   1.258       .  A
O223      Co1304   1.960       .  S
O224        C230   1.255       .  A
O224       Co239   1.966   1_455  S
O225        C228   1.277       .  A
O225       Co242   2.029       .  S
O226        C227   1.256       .  A
O226       Co241   1.981   1_556  S
C227        C468   1.430       .  S
C228        C453   1.440       .  S
C229        C457   1.421       .  S
C230        C461   1.419       .  S
O231        C244   1.287       .  A
O231       Co239   2.034   1_455  S
O232        C245   1.268       .  A
O232      Co1304   2.002       .  S
O233        C246   1.274       .  A
O233       Co241   1.935   1_556  S
O234        C247   1.264       .  A
O234       Co242   1.987       .  S
O235        C247   1.263       .  A
O235       Co240   1.993   1_455  S
O236        C246   1.285       .  A
O236      Co1303   2.039       .  S
O237        C244   1.276       .  A
O237       Co242   1.923   1_556  S
O238        C245   1.263       .  A
O238       Co241   1.979       .  S
Co239      O1283   1.990       .  S
Co239      O1300   2.039       .  S
Co239       O243   2.101   1_556  S
Co240      O1287   1.960       .  S
Co240      O1296   2.002       .  S
Co240       O243   2.014       .  S
Co241      O1307   1.943       .  S
Co242       O243   1.934   1_455  S
O243      Co1305   1.943       .  S
C244        C472   1.430       .  S
C245        C452   1.432       .  S
C246        C473   1.440       .  S
C247        C445   1.434       .  S
N248        C253   1.354       .  A
N248        C252   1.353       .  A
N248        H280   1.029       .  S
N249        C256   1.352       .  A
N249        C257   1.353       .  A
N250        C255   1.351       .  A
N250        C254   1.353       .  A
N250        H281   1.028       .  S
N251        C258   1.350       .  A
N251        C259   1.349       .  A
C252        C260   1.388       .  A
C252        C268   1.413       .  A
C253        C269   1.413       .  A
C253        C261   1.387       .  A
C254        C262   1.388       .  A
C254        C271   1.411       .  A
C255        C270   1.409       .  A
C255        C263   1.388       .  A
C256        C268   1.415       .  A
C256        C264   1.387       .  A
C257        C271   1.414       .  A
C257        C265   1.386       .  A
C258        C266   1.387       .  A
C258        C269   1.410       .  A
C259        C267   1.388       .  A
C259        C270   1.410       .  A
C260        C261   1.374       .  A
C260        H272   1.082       .  S
C261        H273   1.082       .  S
C262        C263   1.372       .  A
C262        H274   1.082       .  S
C263        H275   1.082       .  S
C264        C265   1.374       .  A
C264        H276   1.082       .  S
C265        H277   1.082       .  S
C266        C267   1.373       .  A
C266        H278   1.082       .  S
C267        H279   1.083       .  S
C268        C443   1.450       .  S
C269        C465   1.448       .  S
C270        C464   1.438       .  S
C271        C442   1.451       .  S
N282        C287   1.351       .  A
N282        C286   1.352       .  A
N282        H314   1.040       .  S
N283        C290   1.354       .  A
N283        C291   1.351       .  A
N284        C289   1.356       .  A
N284        C288   1.355       .  A
N284        H315   1.038       .  S
N285        C292   1.352       .  A
N285        C293   1.350       .  A
C286        C294   1.387       .  A
C286        C302   1.409       .  A
C287        C303   1.409       .  A
C287        C295   1.388       .  A
C288        C296   1.388       .  A
C288        C305   1.420       .  A
C289        C304   1.419       .  A
C289        C297   1.388       .  A
C290        C302   1.412       .  A
C290        C298   1.384       .  A
C291        C305   1.416       .  A
C291        C299   1.388       .  A
C292        C300   1.385       .  A
C292        C303   1.410       .  A
C293        C301   1.389       .  A
C293        C304   1.414       .  A
C294        C295   1.369       .  A
C294        H306   1.082       .  S
C295        H307   1.082       .  S
C296        C297   1.378       .  A
C296        H308   1.082       .  S
C297        H309   1.082       .  S
C298        C299   1.376       .  A
C298        H310   1.082       .  S
C299        H311   1.082       .  S
C300        C301   1.377       .  A
C300        H312   1.082       .  S
C301        H313   1.082       .  S
C302        C476   1.455       .  S
C303        C469   1.447       .  S
C304        C437   1.453       .  S
C305        C440   1.456       .  S
C316        N334   1.350       .  A
C316        C492   1.429       .  S
C316        C353   1.446       .  S
N317        N334   1.327       .  A
N317        N339   1.319       .  A
N317       Co354   2.088       .  S
C318        N343   1.342       .  A
C318        H363   1.082       .  S
C318        C356   1.456       .  S
H319        C360   1.081       .  S
C320        N344   1.343       .  A
C320        H349   1.082       .  S
C320        C324   1.464       .  S
Co321       N339   2.064       .  S
Co321      N1393   2.077       .  S
Co321       N893   2.076       .  S
Co321      N1933   2.068       .  S
Co321      Cl365   2.445       .  S
N322        C360   1.344       .  A
N322        N329   1.320       .  A
N322       Co323   2.091       .  S
Co323       N326   2.070       .  S
Co323       N875   2.081       .  S
Co323       N862   2.087       .  S
Co323     Cl1429   2.452   1_455  S
C324        N362   1.345       .  A
C324        C441   1.436       .  S
N325        N332   1.321       .  A
N325        N355   1.325       .  A
N325       Co358   2.092       .  S
N326        N344   1.320       .  A
N326        N362   1.322       .  A
N327        C356   1.343       .  A
N327        N337   1.321       .  A
H328        C353   1.082       .  S
N329        N350   1.323       .  A
N329      Co1385   2.077   1_455  S
N330        N348   1.321       .  A
N330        N335   1.324       .  A
N330       Co855   2.087   1_545  S
C331        N335   1.349       .  A
C331        C438   1.438       .  S
C331        C359   1.461       .  S
N332        C347   1.338       .  A
N332       Co354   2.083       .  S
C333        N361   1.337       .  A
C333        H367   1.081       .  S
C333        C336   1.449       .  S
C336        N357   1.351       .  A
C336        C489   1.437       .  S
N337        N343   1.319       .  A
N337      Co1917   2.068   1_445  S
N338        C364   1.340       .  A
N338        N340   1.320       .  A
N338       Co886   2.082   1_545  S
N339        C353   1.335       .  A
N340        N368   1.326       .  A
N340       Co890   2.097   1_545  S
H341        C364   1.082       .  S
H342        C359   1.082       .  S
N343       Co855   2.081   1_545  S
N344      Co1422   2.098   1_455  S
N345        N357   1.328       .  A
N345        N361   1.321       .  A
N345       Co886   2.095   1_545  S
C346        N350   1.345       .  A
C346        C487   1.436       .  S
C346        C360   1.458       .  S
C347        H351   1.082       .  S
C347        C366   1.456       .  S
N348        C359   1.341       .  A
N348      Co1954   2.092   1_445  S
C352        N368   1.352       .  A
C352        C439   1.442       .  S
C352        C364   1.458       .  S
Co354       N870   2.082       .  S
Co354       N877   2.095       .  S
Co354      Cl365   2.452       .  S
N355        C366   1.351       .  A
C356        C486   1.428       .  S
Co358       N872   2.097       .  S
Co358      N1408   2.098       .  S
Co358      N1944   2.092       .  S
Co358      Cl365   2.451       .  S
N361       Co853   2.076   1_545  S
Cl365     Co1387   2.452       .  S
C366        C444   1.435       .  S
N369        C374   1.357       .  A
N369        C373   1.358       .  A
N369        H401   1.039       .  S
N370        C377   1.351       .  A
N370        C378   1.351       .  A
N371        C376   1.352       .  A
N371        C375   1.353       .  A
N371        H402   1.038       .  S
N372        C379   1.351       .  A
N372        C380   1.352       .  A
C373        C381   1.387       .  A
C373        C389   1.422       .  A
C374        C390   1.422       .  A
C374        C382   1.388       .  A
C375        C383   1.388       .  A
C375        C392   1.413       .  A
C376        C391   1.412       .  A
C376        C384   1.387       .  A
C377        C389   1.410       .  A
C377        C385   1.387       .  A
C378        C392   1.411       .  A
C378        C386   1.387       .  A
C379        C387   1.387       .  A
C379        C390   1.413       .  A
C380        C388   1.387       .  A
C380        C391   1.412       .  A
C381        C382   1.380       .  A
C381        H393   1.082       .  S
C382        H394   1.082       .  S
C383        C384   1.376       .  A
C383        H395   1.082       .  S
C384        H396   1.082       .  S
C385        C386   1.373       .  A
C385        H397   1.082       .  S
C386        H398   1.082       .  S
C387        C388   1.373       .  A
C387        H399   1.082       .  S
C388        H400   1.082       .  S
C389        C484   1.460       .  S
C390        C482   1.457       .  S
C391        C449   1.451       .  S
C392        C448   1.451       .  S
N403        C408   1.351       .  A
N403        C407   1.347       .  A
N403        H435   1.041       .  S
N404        C411   1.349       .  A
N404        C412   1.349       .  A
N405        C410   1.357       .  A
N405        C409   1.361       .  A
N405        H436   1.038       .  S
N406        C413   1.354       .  A
N406        C414   1.348       .  A
C407        C415   1.389       .  A
C407        C423   1.404       .  A
C408        C424   1.403       .  A
C408        C416   1.386       .  A
C409        C417   1.387       .  A
C409        C426   1.426       .  A
C410        C425   1.426       .  A
C410        C418   1.388       .  A
C411        C423   1.406       .  A
C411        C419   1.385       .  A
C412        C426   1.412       .  A
C412        C420   1.388       .  A
C413        C421   1.383       .  A
C413        C424   1.410       .  A
C414        C422   1.390       .  A
C414        C425   1.415       .  A
C415        C416   1.370       .  A
C415        H427   1.082       .  S
C416        H428   1.082       .  S
C417        C418   1.382       .  A
C417        H429   1.082       .  S
C418        H430   1.082       .  S
C419        C420   1.377       .  A
C419        H431   1.082       .  S
C420        H432   1.082       .  S
C421        C422   1.378       .  A
C421        H433   1.082       .  S
C422        H434   1.082       .  S
C423        C460   1.438       .  S
C424        C456   1.454       .  S
C425        C480   1.455       .  S
C426        C477   1.465       .  S
C437        C438   1.208       .  T
C439        C440   1.210       .  T
C441        C442   1.206       .  T
C443        C444   1.206       .  T
C445        C446   1.206       .  T
C446        C447   1.412       .  S
C447        C448   1.206       .  T
C449        C450   1.206       .  T
C450        C451   1.411       .  S
C451        C452   1.205       .  T
C453        C454   1.209       .  T
C454        C455   1.419       .  S
C455        C456   1.210       .  T
C457        C458   1.199       .  T
C458        C459   1.402       .  S
C459        C460   1.200       .  T
C461        C462   1.197       .  T
C462        C463   1.398       .  S
C463        C464   1.198       .  T
C465        C466   1.204       .  T
C466        C467   1.409       .  S
C467        C468   1.203       .  T
C469        C470   1.205       .  T
C470        C471   1.411       .  S
C471        C472   1.205       .  T
C473        C474   1.210       .  T
C474        C475   1.419       .  S
C475        C476   1.210       .  T
C477        C478   1.216       .  T
C479        C480   1.209       .  T
C481        C482   1.210       .  T
C483        C484   1.213       .  T
C485        C486   1.202       .  T
C487        C488   1.207       .  T
C489        C490   1.207       .  T
C491        C492   1.203       .  T
C493        C494   1.197       .  T
C494        C495   1.397       .  S
C495        C496   1.198       .  T
C497        C498   1.211       .  T
C498        C499   1.420       .  S
C499        C500   1.210       .  T
C501        C502   1.209       .  T
C502        C503   1.417       .  S
C503        C504   1.209       .  T
C505        C506   1.202       .  T
C506        C507   1.406       .  S
C507        C508   1.202       .  T
C509        C510   1.215       .  T
C511        C512   1.209       .  T
C513        C514   1.200       .  T
C514        C515   1.401       .  S
C515        C516   1.199       .  T
C517        C518   1.212       .  T
C518        C519   1.422       .  S
C519        C520   1.212       .  T
C521        C522   1.211       .  T
C523        C524   1.217       .  T
C525        C526   1.214       .  T
C526        C527   1.425       .  S
C527        C528   1.214       .  T
C529        C530   1.199       .  T
C530        C531   1.399       .  S
C531        C532   1.198       .  T
N533        C538   1.362       .  A
N533        C537   1.357       .  A
N533        H565   1.038       .  S
N534        C541   1.351       .  A
N534        C542   1.356       .  A
N535        C540   1.350       .  A
N535        C539   1.355       .  A
N535        H566   1.037       .  S
N536        C543   1.352       .  A
N536        C544   1.350       .  A
C537        C545   1.389       .  A
C537        C553   1.427       .  A
C538        C554   1.425       .  A
C538        C546   1.386       .  A
C539        C547   1.387       .  A
C539        C556   1.413       .  A
C540        C555   1.411       .  A
C540        C548   1.388       .  A
C541        C553   1.417       .  A
C541        C549   1.389       .  A
C542        C556   1.416       .  A
C542        C550   1.385       .  A
C543        C551   1.387       .  A
C543        C554   1.410       .  A
C544        C552   1.388       .  A
C544        C555   1.410       .  A
C545        C546   1.382       .  A
C545        H557   1.082       .  S
C546        H558   1.082       .  S
C547        C548   1.375       .  A
C547        H559   1.082       .  S
C548        H560   1.082       .  S
C549        C550   1.375       .  A
C549        H561   1.082       .  S
C550        H562   1.082       .  S
C551        C552   1.371       .  A
C551        H563   1.082       .  S
C552        H564   1.082       .  S
C553       C1054   1.459       .  S
C554       C1055   1.467       .  S
C555       C1061   1.439       .  S
C556       C1057   1.463       .  S
N567        C572   1.351       .  A
N567        C571   1.356       .  A
N567        H599   1.024       .  S
N568        C575   1.355       .  A
N568        C576   1.351       .  A
N569        C574   1.361       .  A
N569        C573   1.357       .  A
N569        H600   1.028       .  S
N570        C577   1.351       .  A
N570        C578   1.352       .  A
C571        C579   1.387       .  A
C571        C587   1.416       .  A
C572        C588   1.413       .  A
C572        C580   1.388       .  A
C573        C581   1.389       .  A
C573        C590   1.425       .  A
C574        C589   1.424       .  A
C574        C582   1.386       .  A
C575        C587   1.415       .  A
C575        C583   1.385       .  A
C576        C590   1.415       .  A
C576        C584   1.389       .  A
C577        C585   1.388       .  A
C577        C588   1.413       .  A
C578        C586   1.386       .  A
C578        C589   1.412       .  A
C579        C580   1.375       .  A
C579        H591   1.082       .  S
C580        H592   1.082       .  S
C581        C582   1.380       .  A
C581        H593   1.082       .  S
C582        H594   1.082       .  S
C583        C584   1.372       .  A
C583        H595   1.082       .  S
C584        H596   1.082       .  S
C585        C586   1.371       .  A
C585        H597   1.082       .  S
C586        H598   1.082       .  S
C587       C1052   1.460       .  S
C588       C1045   1.441       .  S
C589       C1041   1.464       .  S
C590       C1043   1.456       .  S
O601        C609   1.264       .  A
O601       Co621   1.973       .  S
O602        C610   1.296       .  A
O602       Co622   2.067       .  S
O603        C611   1.265       .  A
O603       Co623   2.024       .  S
O604        C612   1.264       .  A
O605        C611   1.245       .  A
O605       Co622   1.959       .  S
O606        C612   1.262       .  A
O606       Co621   1.994       .  S
O607        C610   1.273       .  A
O607       Co624   1.882       .  S
O608        C609   1.267       .  A
C609       C1064   1.421       .  S
C610       C1025   1.420       .  S
C611       C1060   1.446       .  S
C612       C1032   1.441       .  S
O613        C626   1.268       .  A
O613       Co621   1.979       .  S
O614        C627   1.297       .  A
O614       Co622   2.072       .  S
O615        C628   1.267       .  A
O616        C629   1.261       .  A
O616       Co624   2.018       .  S
O617        C629   1.244       .  A
O617       Co622   1.951       .  S
O618        C628   1.264       .  A
O618       Co621   1.993       .  S
O619        C626   1.273       .  A
O620        C627   1.272       .  A
O620       Co623   1.886       .  S
Co622       O625   2.110       .  S
Co623       O625   1.939       .  S
Co624       O625   1.926       .  S
C626       C1037   1.430       .  S
C627       C1048   1.423       .  S
C628       C1049   1.443       .  S
C629       C1036   1.438       .  S
N630        C635   1.355       .  A
N630        C634   1.352       .  A
N630        H662   1.038       .  S
N631        C638   1.351       .  A
N631        C639   1.354       .  A
N632        C637   1.350       .  A
N632        C636   1.355       .  A
N632        H663   1.036       .  S
N633        C640   1.351       .  A
N633        C641   1.349       .  A
C634        C642   1.389       .  A
C634        C650   1.414       .  A
C635        C651   1.413       .  A
C635        C643   1.386       .  A
C636        C644   1.387       .  A
C636        C653   1.415       .  A
C637        C652   1.412       .  A
C637        C645   1.388       .  A
C638        C650   1.414       .  A
C638        C646   1.388       .  A
C639        C653   1.414       .  A
C639        C647   1.385       .  A
C640        C648   1.386       .  A
C640        C651   1.409       .  A
C641        C649   1.389       .  A
C641        C652   1.411       .  A
C642        C643   1.374       .  A
C642        H654   1.082       .  S
C643        H655   1.082       .  S
C644        C645   1.375       .  A
C644        H656   1.082       .  S
C645        H657   1.082       .  S
C646        C647   1.374       .  A
C646        H658   1.082       .  S
C647        H659   1.082       .  S
C648        C649   1.371       .  A
C648        H660   1.082       .  S
C649        H661   1.082       .  S
C650       C1023   1.446       .  S
C651       C1022   1.452       .  S
C652       C1028   1.439       .  S
C653       C1029   1.458       .  S
N664        C669   1.351       .  A
N664        C668   1.355       .  A
N664        H696   1.040       .  S
N665        C672   1.350       .  A
N665        C673   1.349       .  A
N666        C671   1.353       .  A
N666        C670   1.351       .  A
N666        H697   1.039       .  S
N667        C674   1.349       .  A
N667        C675   1.352       .  A
C668        C676   1.386       .  A
C668        C684   1.411       .  A
C669        C685   1.413       .  A
C669        C677   1.389       .  A
C670        C678   1.387       .  A
C670        C687   1.411       .  A
C671        C686   1.412       .  A
C671        C679   1.387       .  A
C672        C684   1.407       .  A
C672        C680   1.386       .  A
C673        C687   1.408       .  A
C673        C681   1.387       .  A
C674        C682   1.388       .  A
C674        C685   1.411       .  A
C675        C683   1.386       .  A
C675        C686   1.411       .  A
C676        C677   1.376       .  A
C676        H688   1.082       .  S
C677        H689   1.082       .  S
C678        C679   1.376       .  A
C678        H690   1.082       .  S
C679        H691   1.082       .  S
C680        C681   1.373       .  A
C680        H692   1.082       .  S
C681        H693   1.082       .  S
C682        C683   1.375       .  A
C682        H694   1.082       .  S
C683        H695   1.082       .  S
C684       C1020   1.450       .  S
C685       C1017   1.443       .  S
C686       C1033   1.454       .  S
C687       C1040   1.444       .  S
C698        N716   1.340       .  A
C698       C1053   1.443       .  S
C698        C735   1.469       .  S
N699        N716   1.321       .  A
N699        N721   1.324       .  A
N699      Co1800   2.078       .  S
C700        N725   1.354       .  A
C700        H745   1.081       .  S
C700        C738   1.474       .  S
H701        C742   1.082       .  S
C702        N726   1.349       .  A
C702        H731   1.082       .  S
C702        C706   1.467       .  S
Co703       N711   2.126   1_545  S
Co703       N719   2.074   1_545  S
Co703     Cl1811   2.462       .  S
N704        C742   1.336       .  A
N704        N711   1.322       .  A
N704      Co1769   2.075       .  S
Co705      N1768   2.075   1_455  S
Co705       N708   2.080       .  S
Co705      N1789   2.122   1_455  S
Co705       N712   2.103       .  S
Co705      Cl747   2.453   1_465  S
C706        N744   1.341       .  A
C706       C1044   1.439       .  S
N707        N714   1.321       .  A
N707        N737   1.333       .  A
N708        N726   1.323       .  A
N708        N744   1.321       .  A
N709        C738   1.340       .  A
N709        N719   1.322       .  A
H710        C735   1.082       .  S
N711        N732   1.335       .  A
N712        N730   1.321       .  A
N712        N717   1.331       .  A
C713        N717   1.356       .  A
C713       C1011   1.439       .  S
C713        C741   1.443       .  S
N714        C729   1.336       .  A
N714       Co736   2.074   1_455  S
C715        N743   1.337       .  A
C715        H749   1.082       .  S
C715        C718   1.446       .  S
C718        N739   1.356       .  A
C718       C1013   1.442       .  S
N719        N725   1.322       .  A
N720        C746   1.352       .  A
N720        N722   1.322       .  A
N720       Co736   2.117   1_455  S
N721        C735   1.351       .  A
N722        N750   1.320       .  A
H723        C746   1.081       .  S
H724        C741   1.082       .  S
N725      Co1769   2.122       .  S
N726       Co740   2.103   1_565  S
N727        N739   1.331       .  A
N727        N743   1.322       .  A
N727      Co1800   2.104       .  S
C728        N732   1.362       .  A
C728       C1056   1.453       .  S
C728        C742   1.444       .  S
C729        H733   1.082       .  S
C729        C748   1.445       .  S
N730        C741   1.334       .  A
N730       Co740   2.073   1_565  S
C734        N750   1.339       .  A
C734       C1015   1.445       .  S
C734        C746   1.473       .  S
Co736      N1763   2.078       .  S
Co736      N1791   2.104       .  S
N737        C748   1.360       .  A
C738       C1010   1.450       .  S
Co740      Cl747   2.457   1_455  S
Cl747     Co1767   2.462       .  S
C748       C1042   1.449       .  S
O751        C759   1.258       .  A
O751      Co1835   1.989       .  S
O752        C760   1.263       .  A
O752       Co772   1.970   1_455  S
O753        C761   1.271       .  A
O753       Co773   2.008       .  S
O754        C762   1.259       .  A
O754       Co774   1.983   1_556  S
O755        C761   1.258       .  A
O755      Co1836   1.960       .  S
O756        C762   1.255       .  A
O756       Co771   1.966   1_455  S
O757        C760   1.277       .  A
O757       Co774   2.029       .  S
O758        C759   1.256       .  A
O758       Co773   1.981   1_556  S
C759       C1000   1.430       .  S
C760        C985   1.439       .  S
C761        C989   1.421       .  S
C762        C993   1.419       .  S
O763        C776   1.287       .  A
O763       Co771   2.034   1_455  S
O764        C777   1.268       .  A
O764      Co1836   2.002       .  S
O765        C778   1.274       .  A
O765       Co773   1.935   1_556  S
O766        C779   1.264       .  A
O766       Co774   1.987       .  S
O767        C779   1.263       .  A
O767       Co772   1.993   1_455  S
O768        C778   1.285       .  A
O768      Co1835   2.039       .  S
O769        C776   1.276       .  A
O769       Co774   1.923   1_556  S
O770        C777   1.263       .  A
O770       Co773   1.979       .  S
Co771      O1815   1.989       .  S
Co771      O1832   2.039       .  S
Co771       O775   2.101   1_556  S
Co772      O1819   1.960       .  S
Co772      O1828   2.002       .  S
Co772       O775   2.014       .  S
Co773      O1839   1.943       .  S
Co774       O775   1.934   1_455  S
O775      Co1837   1.943       .  S
C776       C1004   1.430       .  S
C777        C984   1.432       .  S
C778       C1005   1.440       .  S
C779        C977   1.434       .  S
N780        C785   1.354       .  A
N780        C784   1.353       .  A
N780        H812   1.027       .  S
N781        C788   1.352       .  A
N781        C789   1.353       .  A
N782        C787   1.351       .  A
N782        C786   1.353       .  A
N782        H813   1.027       .  S
N783        C790   1.350       .  A
N783        C791   1.349       .  A
C784        C792   1.388       .  A
C784        C800   1.413       .  A
C785        C801   1.413       .  A
C785        C793   1.387       .  A
C786        C794   1.388       .  A
C786        C803   1.411       .  A
C787        C802   1.409       .  A
C787        C795   1.388       .  A
C788        C800   1.415       .  A
C788        C796   1.387       .  A
C789        C803   1.414       .  A
C789        C797   1.386       .  A
C790        C798   1.387       .  A
C790        C801   1.410       .  A
C791        C799   1.388       .  A
C791        C802   1.410       .  A
C792        C793   1.374       .  A
C792        H804   1.082       .  S
C793        H805   1.082       .  S
C794        C795   1.372       .  A
C794        H806   1.082       .  S
C795        H807   1.082       .  S
C796        C797   1.374       .  A
C796        H808   1.082       .  S
C797        H809   1.082       .  S
C798        C799   1.373       .  A
C798        H810   1.082       .  S
C799        H811   1.083       .  S
C800        C975   1.450       .  S
C801        C997   1.448       .  S
C802        C996   1.438       .  S
C803        C974   1.451       .  S
N814        C819   1.351       .  A
N814        C818   1.352       .  A
N814        H846   1.040       .  S
N815        C822   1.354       .  A
N815        C823   1.351       .  A
N816        C821   1.356       .  A
N816        C820   1.355       .  A
N816        H847   1.038       .  S
N817        C824   1.352       .  A
N817        C825   1.350       .  A
C818        C826   1.387       .  A
C818        C834   1.409       .  A
C819        C835   1.409       .  A
C819        C827   1.388       .  A
C820        C828   1.388       .  A
C820        C837   1.420       .  A
C821        C836   1.419       .  A
C821        C829   1.388       .  A
C822        C834   1.412       .  A
C822        C830   1.384       .  A
C823        C837   1.416       .  A
C823        C831   1.388       .  A
C824        C832   1.385       .  A
C824        C835   1.410       .  A
C825        C833   1.389       .  A
C825        C836   1.414       .  A
C826        C827   1.369       .  A
C826        H838   1.082       .  S
C827        H839   1.082       .  S
C828        C829   1.378       .  A
C828        H840   1.082       .  S
C829        H841   1.082       .  S
C830        C831   1.376       .  A
C830        H842   1.082       .  S
C831        H843   1.082       .  S
C832        C833   1.377       .  A
C832        H844   1.082       .  S
C833        H845   1.082       .  S
C834       C1008   1.455       .  S
C835       C1001   1.447       .  S
C836        C969   1.453       .  S
C837        C972   1.456       .  S
C848        N866   1.350       .  A
C848       C1024   1.429       .  S
C848        C885   1.446       .  S
N849        N866   1.327       .  A
N849        N871   1.319       .  A
N849       Co886   2.088       .  S
C850        N875   1.342       .  A
C850        H895   1.082       .  S
C850        C888   1.456       .  S
H851        C892   1.081       .  S
C852        N876   1.343       .  A
C852        H881   1.082       .  S
C852        C856   1.464       .  S
Co853       N871   2.064       .  S
Co853      N1925   2.077       .  S
Co853      N1401   2.068   1_565  S
Co853      Cl897   2.445       .  S
N854        C892   1.344       .  A
N854        N861   1.320       .  A
N854       Co855   2.091       .  S
Co855       N858   2.070       .  S
Co855     Cl1961   2.452   1_455  S
C856        N894   1.345       .  A
C856        C973   1.436       .  S
N857        N864   1.321       .  A
N857        N887   1.325       .  A
N857       Co890   2.092       .  S
N858        N876   1.320       .  A
N858        N894   1.322       .  A
N859        C888   1.343       .  A
N859        N869   1.321       .  A
H860        C885   1.082       .  S
N861        N882   1.323       .  A
N861      Co1917   2.077   1_455  S
N862        N880   1.321       .  A
N862        N867   1.324       .  A
C863        N867   1.349       .  A
C863        C970   1.438       .  S
C863        C891   1.461       .  S
N864        C879   1.338       .  A
N864       Co886   2.083       .  S
C865        N893   1.337       .  A
C865        H899   1.081       .  S
C865        C868   1.449       .  S
C868        N889   1.351       .  A
C868       C1021   1.437       .  S
N869        N875   1.319       .  A
N869      Co1385   2.068   1_455  S
N870        C896   1.340       .  A
N870        N872   1.320       .  A
N871        C885   1.335       .  A
N872        N900   1.326       .  A
H873        C896   1.082       .  S
H874        C891   1.082       .  S
N876      Co1954   2.098   1_455  S
N877        N889   1.328       .  A
N877        N893   1.321       .  A
C878        N882   1.345       .  A
C878       C1019   1.436       .  S
C878        C892   1.458       .  S
C879        H883   1.082       .  S
C879        C898   1.456       .  S
N880        C891   1.341       .  A
N880      Co1422   2.092   1_455  S
C884        N900   1.352       .  A
C884        C971   1.442       .  S
C884        C896   1.458       .  S
Co886      Cl897   2.452       .  S
N887        C898   1.351       .  A
C888       C1018   1.428       .  S
Co890      N1940   2.098       .  S
Co890      N1412   2.092   1_565  S
Co890      Cl897   2.451       .  S
Cl897     Co1919   2.452       .  S
C898        C976   1.435       .  S
N901        C906   1.357       .  A
N901        C905   1.358       .  A
N901        H933   1.039       .  S
N902        C909   1.351       .  A
N902        C910   1.351       .  A
N903        C908   1.352       .  A
N903        C907   1.353       .  A
N903        H934   1.038       .  S
N904        C911   1.351       .  A
N904        C912   1.352       .  A
C905        C913   1.387       .  A
C905        C921   1.422       .  A
C906        C922   1.422       .  A
C906        C914   1.388       .  A
C907        C915   1.388       .  A
C907        C924   1.413       .  A
C908        C923   1.412       .  A
C908        C916   1.387       .  A
C909        C921   1.410       .  A
C909        C917   1.387       .  A
C910        C924   1.411       .  A
C910        C918   1.387       .  A
C911        C919   1.387       .  A
C911        C922   1.413       .  A
C912        C920   1.387       .  A
C912        C923   1.412       .  A
C913        C914   1.380       .  A
C913        H925   1.082       .  S
C914        H926   1.082       .  S
C915        C916   1.376       .  A
C915        H927   1.082       .  S
C916        H928   1.082       .  S
C917        C918   1.373       .  A
C917        H929   1.082       .  S
C918        H930   1.082       .  S
C919        C920   1.373       .  A
C919        H931   1.082       .  S
C920        H932   1.082       .  S
C921       C1016   1.460       .  S
C922       C1014   1.457       .  S
C923        C981   1.451       .  S
C924        C980   1.451       .  S
N935        C940   1.351       .  A
N935        C939   1.347       .  A
N935        H967   1.041       .  S
N936        C943   1.349       .  A
N936        C944   1.349       .  A
N937        C942   1.357       .  A
N937        C941   1.361       .  A
N937        H968   1.038       .  S
N938        C945   1.354       .  A
N938        C946   1.348       .  A
C939        C947   1.389       .  A
C939        C955   1.404       .  A
C940        C956   1.403       .  A
C940        C948   1.386       .  A
C941        C949   1.387       .  A
C941        C958   1.426       .  A
C942        C957   1.426       .  A
C942        C950   1.388       .  A
C943        C955   1.406       .  A
C943        C951   1.385       .  A
C944        C958   1.412       .  A
C944        C952   1.388       .  A
C945        C953   1.383       .  A
C945        C956   1.410       .  A
C946        C954   1.390       .  A
C946        C957   1.415       .  A
C947        C948   1.370       .  A
C947        H959   1.082       .  S
C948        H960   1.082       .  S
C949        C950   1.382       .  A
C949        H961   1.082       .  S
C950        H962   1.082       .  S
C951        C952   1.377       .  A
C951        H963   1.082       .  S
C952        H964   1.082       .  S
C953        C954   1.378       .  A
C953        H965   1.082       .  S
C954        H966   1.082       .  S
C955        C992   1.438       .  S
C956        C988   1.454       .  S
C957       C1012   1.455       .  S
C958       C1009   1.465       .  S
C969        C970   1.208       .  T
C971        C972   1.210       .  T
C973        C974   1.206       .  T
C975        C976   1.206       .  T
C977        C978   1.206       .  T
C978        C979   1.412       .  S
C979        C980   1.206       .  T
C981        C982   1.206       .  T
C982        C983   1.411       .  S
C983        C984   1.205       .  T
C985        C986   1.209       .  T
C986        C987   1.418       .  S
C987        C988   1.210       .  T
C989        C990   1.199       .  T
C990        C991   1.402       .  S
C991        C992   1.200       .  T
C993        C994   1.197       .  T
C994        C995   1.398       .  S
C995        C996   1.198       .  T
C997        C998   1.204       .  T
C998        C999   1.409       .  S
C999       C1000   1.203       .  T
C1001      C1002   1.205       .  T
C1002      C1003   1.411       .  S
C1003      C1004   1.205       .  T
C1005      C1006   1.210       .  T
C1006      C1007   1.419       .  S
C1007      C1008   1.210       .  T
C1009      C1010   1.216       .  T
C1011      C1012   1.209       .  T
C1013      C1014   1.211       .  T
C1015      C1016   1.213       .  T
C1017      C1018   1.202       .  T
C1019      C1020   1.207       .  T
C1021      C1022   1.207       .  T
C1023      C1024   1.203       .  T
C1025      C1026   1.197       .  T
C1026      C1027   1.397       .  S
C1027      C1028   1.198       .  T
C1029      C1030   1.211       .  T
C1030      C1031   1.420       .  S
C1031      C1032   1.210       .  T
C1033      C1034   1.209       .  T
C1034      C1035   1.417       .  S
C1035      C1036   1.209       .  T
C1037      C1038   1.202       .  T
C1038      C1039   1.406       .  S
C1039      C1040   1.202       .  T
C1041      C1042   1.215       .  T
C1043      C1044   1.209       .  T
C1045      C1046   1.200       .  T
C1046      C1047   1.401       .  S
C1047      C1048   1.199       .  T
C1049      C1050   1.212       .  T
C1050      C1051   1.422       .  S
C1051      C1052   1.212       .  T
C1053      C1054   1.211       .  T
C1055      C1056   1.217       .  T
C1057      C1058   1.214       .  T
C1058      C1059   1.425       .  S
C1059      C1060   1.214       .  T
C1061      C1062   1.199       .  T
C1062      C1063   1.399       .  S
C1063      C1064   1.197       .  T
N1065      C1070   1.362       .  A
N1065      C1069   1.357       .  A
N1065      H1097   1.038       .  S
N1066      C1073   1.351       .  A
N1066      C1074   1.356       .  A
N1067      C1072   1.350       .  A
N1067      C1071   1.355       .  A
N1067      H1098   1.037       .  S
N1068      C1075   1.352       .  A
N1068      C1076   1.350       .  A
C1069      C1077   1.389       .  A
C1069      C1085   1.427       .  A
C1070      C1086   1.425       .  A
C1070      C1078   1.386       .  A
C1071      C1079   1.387       .  A
C1071      C1088   1.413       .  A
C1072      C1087   1.411       .  A
C1072      C1080   1.388       .  A
C1073      C1085   1.417       .  A
C1073      C1081   1.389       .  A
C1074      C1088   1.416       .  A
C1074      C1082   1.385       .  A
C1075      C1083   1.387       .  A
C1075      C1086   1.410       .  A
C1076      C1084   1.388       .  A
C1076      C1087   1.410       .  A
C1077      C1078   1.382       .  A
C1077      H1089   1.082       .  S
C1078      H1090   1.082       .  S
C1079      C1080   1.375       .  A
C1079      H1091   1.082       .  S
C1080      H1092   1.082       .  S
C1081      C1082   1.375       .  A
C1081      H1093   1.082       .  S
C1082      H1094   1.082       .  S
C1083      C1084   1.371       .  A
C1083      H1095   1.082       .  S
C1084      H1096   1.082       .  S
C1085      C1586   1.458       .  S
C1086      C1587   1.467       .  S
C1087      C1593   1.439       .  S
C1088      C1589   1.463       .  S
N1099      C1104   1.351       .  A
N1099      C1103   1.356       .  A
N1099      H1131   1.026       .  S
N1100      C1107   1.355       .  A
N1100      C1108   1.351       .  A
N1101      C1106   1.361       .  A
N1101      C1105   1.357       .  A
N1101      H1132   1.030       .  S
N1102      C1109   1.351       .  A
N1102      C1110   1.352       .  A
C1103      C1111   1.387       .  A
C1103      C1119   1.416       .  A
C1104      C1120   1.413       .  A
C1104      C1112   1.388       .  A
C1105      C1113   1.389       .  A
C1105      C1122   1.425       .  A
C1106      C1121   1.424       .  A
C1106      C1114   1.386       .  A
C1107      C1119   1.415       .  A
C1107      C1115   1.385       .  A
C1108      C1122   1.415       .  A
C1108      C1116   1.389       .  A
C1109      C1117   1.388       .  A
C1109      C1120   1.413       .  A
C1110      C1118   1.386       .  A
C1110      C1121   1.412       .  A
C1111      C1112   1.375       .  A
C1111      H1123   1.082       .  S
C1112      H1124   1.082       .  S
C1113      C1114   1.380       .  A
C1113      H1125   1.082       .  S
C1114      H1126   1.082       .  S
C1115      C1116   1.372       .  A
C1115      H1127   1.082       .  S
C1116      H1128   1.082       .  S
C1117      C1118   1.371       .  A
C1117      H1129   1.082       .  S
C1118      H1130   1.082       .  S
C1119      C1584   1.461       .  S
C1120      C1577   1.441       .  S
C1121      C1573   1.464       .  S
C1122      C1575   1.455       .  S
O1133      C1141   1.264       .  A
O1133     Co1153   1.973       .  S
O1134      C1142   1.296       .  A
O1134     Co1154   2.067       .  S
O1135      C1143   1.265       .  A
O1135     Co1155   2.024       .  S
O1136      C1144   1.264       .  A
O1136     Co1688   1.991       .  S
O1137      C1143   1.245       .  A
O1137     Co1154   1.959       .  S
O1138      C1144   1.262       .  A
O1138     Co1153   1.994       .  S
O1139      C1142   1.273       .  A
O1139     Co1156   1.882       .  S
O1140      C1141   1.267       .  A
O1140     Co1687   1.985       .  S
C1141      C1596   1.421       .  S
C1142      C1557   1.420       .  S
C1143      C1592   1.446       .  S
C1144      C1564   1.441       .  S
O1145      C1158   1.268       .  A
O1145     Co1153   1.979       .  S
O1146      C1159   1.297       .  A
O1146     Co1154   2.072       .  S
O1147      C1160   1.267       .  A
O1147     Co1687   1.992       .  S
O1148      C1161   1.261       .  A
O1148     Co1156   2.018       .  S
O1149      C1161   1.244       .  A
O1149     Co1154   1.951       .  S
O1150      C1160   1.264       .  A
O1150     Co1153   1.993       .  S
O1151      C1158   1.273       .  A
O1151     Co1688   2.003       .  S
O1152      C1159   1.272       .  A
O1152     Co1155   1.886       .  S
Co1153     O1689   2.030       .  S
Co1154     O1157   2.110   1_545  S
Co1155     O1672   1.985   1_545  S
Co1155     O1679   1.992   1_545  S
Co1155     O1157   1.939   1_545  S
Co1156     O1668   1.991   1_545  S
Co1156     O1683   2.003   1_545  S
Co1156     O1157   1.926   1_545  S
O1157     Co1685   2.030       .  S
C1158      C1569   1.430       .  S
C1159      C1580   1.423       .  S
C1160      C1581   1.443       .  S
C1161      C1568   1.438       .  S
N1162      C1167   1.355       .  A
N1162      C1166   1.352       .  A
N1162      H1194   1.038       .  S
N1163      C1170   1.351       .  A
N1163      C1171   1.354       .  A
N1164      C1169   1.350       .  A
N1164      C1168   1.355       .  A
N1164      H1195   1.036       .  S
N1165      C1172   1.351       .  A
N1165      C1173   1.349       .  A
C1166      C1174   1.389       .  A
C1166      C1182   1.414       .  A
C1167      C1183   1.413       .  A
C1167      C1175   1.386       .  A
C1168      C1176   1.387       .  A
C1168      C1185   1.415       .  A
C1169      C1184   1.412       .  A
C1169      C1177   1.388       .  A
C1170      C1182   1.414       .  A
C1170      C1178   1.388       .  A
C1171      C1185   1.414       .  A
C1171      C1179   1.385       .  A
C1172      C1180   1.386       .  A
C1172      C1183   1.409       .  A
C1173      C1181   1.389       .  A
C1173      C1184   1.411       .  A
C1174      C1175   1.374       .  A
C1174      H1186   1.082       .  S
C1175      H1187   1.082       .  S
C1176      C1177   1.375       .  A
C1176      H1188   1.082       .  S
C1177      H1189   1.082       .  S
C1178      C1179   1.374       .  A
C1178      H1190   1.082       .  S
C1179      H1191   1.082       .  S
C1180      C1181   1.371       .  A
C1180      H1192   1.082       .  S
C1181      H1193   1.082       .  S
C1182      C1555   1.446       .  S
C1183      C1554   1.452       .  S
C1184      C1560   1.439       .  S
C1185      C1561   1.458       .  S
N1196      C1201   1.351       .  A
N1196      C1200   1.355       .  A
N1196      H1228   1.040       .  S
N1197      C1204   1.350       .  A
N1197      C1205   1.349       .  A
N1198      C1203   1.353       .  A
N1198      C1202   1.351       .  A
N1198      H1229   1.039       .  S
N1199      C1206   1.349       .  A
N1199      C1207   1.352       .  A
C1200      C1208   1.386       .  A
C1200      C1216   1.411       .  A
C1201      C1217   1.413       .  A
C1201      C1209   1.389       .  A
C1202      C1210   1.387       .  A
C1202      C1219   1.411       .  A
C1203      C1218   1.412       .  A
C1203      C1211   1.387       .  A
C1204      C1216   1.407       .  A
C1204      C1212   1.386       .  A
C1205      C1219   1.408       .  A
C1205      C1213   1.387       .  A
C1206      C1214   1.388       .  A
C1206      C1217   1.411       .  A
C1207      C1215   1.386       .  A
C1207      C1218   1.411       .  A
C1208      C1209   1.376       .  A
C1208      H1220   1.082       .  S
C1209      H1221   1.082       .  S
C1210      C1211   1.376       .  A
C1210      H1222   1.082       .  S
C1211      H1223   1.082       .  S
C1212      C1213   1.373       .  A
C1212      H1224   1.082       .  S
C1213      H1225   1.082       .  S
C1214      C1215   1.375       .  A
C1214      H1226   1.082       .  S
C1215      H1227   1.082       .  S
C1216      C1552   1.450       .  S
C1217      C1549   1.443       .  S
C1218      C1565   1.454       .  S
C1219      C1572   1.444       .  S
C1230      N1248   1.340       .  A
C1230      C1585   1.443       .  S
C1230      C1267   1.469       .  S
N1231      N1248   1.321       .  A
N1231      N1253   1.324       .  A
C1232      N1257   1.354       .  A
C1232      H1277   1.081       .  S
C1232      C1270   1.474       .  S
H1233      C1274   1.082       .  S
C1234      N1258   1.349       .  A
C1234      H1263   1.082       .  S
C1234      C1238   1.467       .  S
Co1235     N1785   2.109       .  S
Co1235     N1243   2.125       .  S
Co1235     N1807   2.082       .  S
Co1235     N1251   2.074       .  S
N1236      C1274   1.336       .  A
N1236      N1243   1.322       .  A
Co1237     N1240   2.080       .  S
Co1237     N1244   2.103       .  S
Co1237    Cl1279   2.453       .  S
C1238      N1276   1.341       .  A
C1238      C1576   1.439       .  S
N1239      N1246   1.321       .  A
N1239      N1269   1.333       .  A
N1239     Co1804   2.117       .  S
N1240      N1258   1.323       .  A
N1240      N1276   1.321       .  A
N1241      C1270   1.340       .  A
N1241      N1251   1.322       .  A
H1242      C1267   1.082       .  S
N1243      N1264   1.335       .  A
N1244      N1262   1.321       .  A
N1244      N1249   1.331       .  A
C1245      N1249   1.356       .  A
C1245      C1543   1.439       .  S
C1245      C1273   1.443       .  S
N1246      C1261   1.336       .  A
N1246     Co1268   2.074       .  S
C1247      N1275   1.337       .  A
C1247      H1281   1.082       .  S
C1247      C1250   1.446       .  S
C1250      N1271   1.356       .  A
C1250      C1545   1.442       .  S
N1251      N1257   1.322       .  A
N1252      C1278   1.352       .  A
N1252      N1254   1.322       .  A
N1252     Co1268   2.116       .  S
N1253      C1267   1.351       .  A
N1253     Co1767   2.109       .  S
N1254      N1282   1.320       .  A
N1254     Co1804   2.066       .  S
H1255      C1278   1.081       .  S
H1256      C1273   1.082       .  S
N1258     Co1272   2.102       .  S
N1259      N1271   1.331       .  A
N1259      N1275   1.322       .  A
C1260      N1264   1.362       .  A
C1260      C1588   1.453       .  S
C1260      C1274   1.444       .  S
C1261      H1265   1.082       .  S
C1261      C1280   1.445       .  S
N1262      C1273   1.334       .  A
N1262     Co1272   2.073       .  S
C1266      N1282   1.339       .  A
C1266      C1547   1.445       .  S
C1266      C1278   1.473       .  S
Co1268    Cl1811   2.453       .  S
N1269      C1280   1.360       .  A
C1270      C1542   1.450       .  S
Co1272     N1771   2.117       .  S
Co1272     N1786   2.066       .  S
Co1272    Cl1279   2.457       .  S
N1275     Co1767   2.082       .  S
Cl1279    Co1800   2.453       .  S
C1280      C1574   1.449       .  S
O1283      C1291   1.258       .  A
O1284      C1292   1.263       .  A
O1284     Co1304   1.970       .  S
O1285      C1293   1.271       .  A
O1285     Co1305   2.008       .  S
O1286      C1294   1.259       .  A
O1286     Co1306   1.983   1_556  S
O1287      C1293   1.258       .  A
O1288      C1294   1.255       .  A
O1288     Co1303   1.966       .  S
O1289      C1292   1.277       .  A
O1289     Co1306   2.029       .  S
O1290      C1291   1.256       .  A
O1290     Co1305   1.981   1_556  S
C1291      C1532   1.430       .  S
C1292      C1517   1.440       .  S
C1293      C1521   1.421       .  S
C1294      C1525   1.419       .  S
O1295      C1308   1.287       .  A
O1295     Co1303   2.034       .  S
O1296      C1309   1.268       .  A
O1297      C1310   1.274       .  A
O1297     Co1305   1.935   1_556  S
O1298      C1311   1.264       .  A
O1298     Co1306   1.987       .  S
O1299      C1311   1.263       .  A
O1299     Co1304   1.993       .  S
O1300      C1310   1.285       .  A
O1301      C1308   1.276       .  A
O1301     Co1306   1.923   1_556  S
O1302      C1309   1.263       .  A
O1302     Co1305   1.979       .  S
Co1303     O1307   2.101   1_556  S
Co1304     O1307   2.014       .  S
Co1306     O1307   1.934       .  S
C1308      C1536   1.430       .  S
C1309      C1516   1.432       .  S
C1310      C1537   1.440       .  S
C1311      C1509   1.434       .  S
N1312      C1317   1.354       .  A
N1312      C1316   1.353       .  A
N1312      H1344   1.029       .  S
N1313      C1320   1.352       .  A
N1313      C1321   1.353       .  A
N1314      C1319   1.351       .  A
N1314      C1318   1.353       .  A
N1314      H1345   1.028       .  S
N1315      C1322   1.350       .  A
N1315      C1323   1.349       .  A
C1316      C1324   1.388       .  A
C1316      C1332   1.413       .  A
C1317      C1333   1.413       .  A
C1317      C1325   1.387       .  A
C1318      C1326   1.388       .  A
C1318      C1335   1.411       .  A
C1319      C1334   1.409       .  A
C1319      C1327   1.388       .  A
C1320      C1332   1.415       .  A
C1320      C1328   1.387       .  A
C1321      C1335   1.414       .  A
C1321      C1329   1.386       .  A
C1322      C1330   1.387       .  A
C1322      C1333   1.410       .  A
C1323      C1331   1.388       .  A
C1323      C1334   1.410       .  A
C1324      C1325   1.374       .  A
C1324      H1336   1.082       .  S
C1325      H1337   1.082       .  S
C1326      C1327   1.372       .  A
C1326      H1338   1.082       .  S
C1327      H1339   1.082       .  S
C1328      C1329   1.374       .  A
C1328      H1340   1.082       .  S
C1329      H1341   1.082       .  S
C1330      C1331   1.373       .  A
C1330      H1342   1.082       .  S
C1331      H1343   1.083       .  S
C1332      C1507   1.450       .  S
C1333      C1529   1.448       .  S
C1334      C1528   1.438       .  S
C1335      C1506   1.451       .  S
N1346      C1351   1.351       .  A
N1346      C1350   1.352       .  A
N1346      H1378   1.040       .  S
N1347      C1354   1.354       .  A
N1347      C1355   1.351       .  A
N1348      C1353   1.356       .  A
N1348      C1352   1.355       .  A
N1348      H1379   1.038       .  S
N1349      C1356   1.352       .  A
N1349      C1357   1.350       .  A
C1350      C1358   1.387       .  A
C1350      C1366   1.409       .  A
C1351      C1367   1.409       .  A
C1351      C1359   1.388       .  A
C1352      C1360   1.388       .  A
C1352      C1369   1.420       .  A
C1353      C1368   1.419       .  A
C1353      C1361   1.388       .  A
C1354      C1366   1.412       .  A
C1354      C1362   1.384       .  A
C1355      C1369   1.416       .  A
C1355      C1363   1.388       .  A
C1356      C1364   1.385       .  A
C1356      C1367   1.410       .  A
C1357      C1365   1.389       .  A
C1357      C1368   1.414       .  A
C1358      C1359   1.369       .  A
C1358      H1370   1.082       .  S
C1359      H1371   1.082       .  S
C1360      C1361   1.378       .  A
C1360      H1372   1.082       .  S
C1361      H1373   1.082       .  S
C1362      C1363   1.376       .  A
C1362      H1374   1.082       .  S
C1363      H1375   1.082       .  S
C1364      C1365   1.377       .  A
C1364      H1376   1.082       .  S
C1365      H1377   1.082       .  S
C1366      C1540   1.455       .  S
C1367      C1533   1.447       .  S
C1368      C1501   1.453       .  S
C1369      C1504   1.456       .  S
C1380      N1398   1.350       .  A
C1380      C1556   1.429       .  S
C1380      C1417   1.446       .  S
N1381      N1398   1.327       .  A
N1381      N1403   1.319       .  A
N1381     Co1418   2.088       .  S
C1382      N1407   1.342       .  A
C1382      H1427   1.082       .  S
C1382      C1420   1.456       .  S
H1383      C1424   1.081       .  S
C1384      N1408   1.343       .  A
C1384      H1413   1.082       .  S
C1384      C1388   1.464       .  S
Co1385     N1403   2.064       .  S
Co1385     N1957   2.076       .  S
Co1385    Cl1429   2.445       .  S
N1386      C1424   1.344       .  A
N1386      N1393   1.320       .  A
N1386     Co1387   2.091       .  S
Co1387     N1390   2.070       .  S
Co1387     N1939   2.081       .  S
Co1387     N1926   2.087       .  S
C1388      N1426   1.345       .  A
C1388      C1505   1.436       .  S
N1389      N1396   1.321       .  A
N1389      N1419   1.325       .  A
N1389     Co1422   2.092       .  S
N1390      N1408   1.320       .  A
N1390      N1426   1.322       .  A
N1391      C1420   1.343       .  A
N1391      N1401   1.321       .  A
H1392      C1417   1.082       .  S
N1393      N1414   1.323       .  A
N1394      N1412   1.321       .  A
N1394      N1399   1.324       .  A
N1394     Co1919   2.087   1_545  S
C1395      N1399   1.349       .  A
C1395      C1502   1.438       .  S
C1395      C1423   1.461       .  S
N1396      C1411   1.338       .  A
N1396     Co1418   2.083       .  S
C1397      N1425   1.337       .  A
C1397      H1431   1.081       .  S
C1397      C1400   1.449       .  S
C1400      N1421   1.351       .  A
C1400      C1553   1.437       .  S
N1401      N1407   1.319       .  A
N1402      C1428   1.340       .  A
N1402      N1404   1.320       .  A
N1402     Co1950   2.082   1_545  S
N1403      C1417   1.335       .  A
N1404      N1432   1.326       .  A
N1404     Co1954   2.097   1_545  S
H1405      C1428   1.082       .  S
H1406      C1423   1.082       .  S
N1407     Co1919   2.081   1_545  S
N1409      N1421   1.328       .  A
N1409      N1425   1.321       .  A
N1409     Co1950   2.095   1_545  S
C1410      N1414   1.345       .  A
C1410      C1551   1.436       .  S
C1410      C1424   1.458       .  S
C1411      H1415   1.082       .  S
C1411      C1430   1.456       .  S
N1412      C1423   1.341       .  A
C1416      N1432   1.352       .  A
C1416      C1503   1.442       .  S
C1416      C1428   1.458       .  S
Co1418     N1934   2.082       .  S
Co1418     N1941   2.095       .  S
Co1418    Cl1429   2.452       .  S
N1419      C1430   1.351       .  A
C1420      C1550   1.428       .  S
Co1422     N1936   2.097       .  S
Co1422    Cl1429   2.451       .  S
N1425     Co1917   2.076   1_545  S
C1430      C1508   1.435       .  S
N1433      C1438   1.357       .  A
N1433      C1437   1.358       .  A
N1433      H1465   1.039       .  S
N1434      C1441   1.351       .  A
N1434      C1442   1.351       .  A
N1435      C1440   1.352       .  A
N1435      C1439   1.353       .  A
N1435      H1466   1.038       .  S
N1436      C1443   1.351       .  A
N1436      C1444   1.352       .  A
C1437      C1445   1.387       .  A
C1437      C1453   1.422       .  A
C1438      C1454   1.422       .  A
C1438      C1446   1.388       .  A
C1439      C1447   1.388       .  A
C1439      C1456   1.413       .  A
C1440      C1455   1.412       .  A
C1440      C1448   1.387       .  A
C1441      C1453   1.410       .  A
C1441      C1449   1.387       .  A
C1442      C1456   1.411       .  A
C1442      C1450   1.387       .  A
C1443      C1451   1.387       .  A
C1443      C1454   1.413       .  A
C1444      C1452   1.387       .  A
C1444      C1455   1.412       .  A
C1445      C1446   1.380       .  A
C1445      H1457   1.082       .  S
C1446      H1458   1.082       .  S
C1447      C1448   1.376       .  A
C1447      H1459   1.082       .  S
C1448      H1460   1.082       .  S
C1449      C1450   1.373       .  A
C1449      H1461   1.082       .  S
C1450      H1462   1.082       .  S
C1451      C1452   1.373       .  A
C1451      H1463   1.082       .  S
C1452      H1464   1.082       .  S
C1453      C1548   1.460       .  S
C1454      C1546   1.457       .  S
C1455      C1513   1.451       .  S
C1456      C1512   1.451       .  S
N1467      C1472   1.351       .  A
N1467      C1471   1.347       .  A
N1467      H1499   1.041       .  S
N1468      C1475   1.349       .  A
N1468      C1476   1.349       .  A
N1469      C1474   1.357       .  A
N1469      C1473   1.361       .  A
N1469      H1500   1.038       .  S
N1470      C1477   1.354       .  A
N1470      C1478   1.348       .  A
C1471      C1479   1.389       .  A
C1471      C1487   1.404       .  A
C1472      C1488   1.403       .  A
C1472      C1480   1.386       .  A
C1473      C1481   1.387       .  A
C1473      C1490   1.426       .  A
C1474      C1489   1.426       .  A
C1474      C1482   1.388       .  A
C1475      C1487   1.406       .  A
C1475      C1483   1.385       .  A
C1476      C1490   1.412       .  A
C1476      C1484   1.388       .  A
C1477      C1485   1.383       .  A
C1477      C1488   1.410       .  A
C1478      C1486   1.390       .  A
C1478      C1489   1.415       .  A
C1479      C1480   1.370       .  A
C1479      H1491   1.082       .  S
C1480      H1492   1.082       .  S
C1481      C1482   1.382       .  A
C1481      H1493   1.082       .  S
C1482      H1494   1.082       .  S
C1483      C1484   1.377       .  A
C1483      H1495   1.082       .  S
C1484      H1496   1.082       .  S
C1485      C1486   1.378       .  A
C1485      H1497   1.082       .  S
C1486      H1498   1.082       .  S
C1487      C1524   1.438       .  S
C1488      C1520   1.454       .  S
C1489      C1544   1.455       .  S
C1490      C1541   1.465       .  S
C1501      C1502   1.208       .  T
C1503      C1504   1.210       .  T
C1505      C1506   1.206       .  T
C1507      C1508   1.206       .  T
C1509      C1510   1.206       .  T
C1510      C1511   1.412       .  S
C1511      C1512   1.206       .  T
C1513      C1514   1.206       .  T
C1514      C1515   1.411       .  S
C1515      C1516   1.205       .  T
C1517      C1518   1.209       .  T
C1518      C1519   1.419       .  S
C1519      C1520   1.210       .  T
C1521      C1522   1.199       .  T
C1522      C1523   1.402       .  S
C1523      C1524   1.200       .  T
C1525      C1526   1.197       .  T
C1526      C1527   1.398       .  S
C1527      C1528   1.198       .  T
C1529      C1530   1.204       .  T
C1530      C1531   1.409       .  S
C1531      C1532   1.203       .  T
C1533      C1534   1.205       .  T
C1534      C1535   1.411       .  S
C1535      C1536   1.205       .  T
C1537      C1538   1.210       .  T
C1538      C1539   1.419       .  S
C1539      C1540   1.210       .  T
C1541      C1542   1.216       .  T
C1543      C1544   1.209       .  T
C1545      C1546   1.210       .  T
C1547      C1548   1.213       .  T
C1549      C1550   1.202       .  T
C1551      C1552   1.207       .  T
C1553      C1554   1.207       .  T
C1555      C1556   1.203       .  T
C1557      C1558   1.197       .  T
C1558      C1559   1.397       .  S
C1559      C1560   1.198       .  T
C1561      C1562   1.211       .  T
C1562      C1563   1.420       .  S
C1563      C1564   1.210       .  T
C1565      C1566   1.209       .  T
C1566      C1567   1.417       .  S
C1567      C1568   1.209       .  T
C1569      C1570   1.202       .  T
C1570      C1571   1.406       .  S
C1571      C1572   1.202       .  T
C1573      C1574   1.215       .  T
C1575      C1576   1.209       .  T
C1577      C1578   1.200       .  T
C1578      C1579   1.401       .  S
C1579      C1580   1.199       .  T
C1581      C1582   1.212       .  T
C1582      C1583   1.422       .  S
C1583      C1584   1.212       .  T
C1585      C1586   1.211       .  T
C1587      C1588   1.217       .  T
C1589      C1590   1.214       .  T
C1590      C1591   1.425       .  S
C1591      C1592   1.214       .  T
C1593      C1594   1.199       .  T
C1594      C1595   1.399       .  S
C1595      C1596   1.198       .  T
N1597      C1602   1.362       .  A
N1597      C1601   1.357       .  A
N1597      H1629   1.038       .  S
N1598      C1605   1.351       .  A
N1598      C1606   1.356       .  A
N1599      C1604   1.350       .  A
N1599      C1603   1.355       .  A
N1599      H1630   1.037       .  S
N1600      C1607   1.352       .  A
N1600      C1608   1.350       .  A
C1601      C1609   1.389       .  A
C1601      C1617   1.427       .  A
C1602      C1618   1.425       .  A
C1602      C1610   1.386       .  A
C1603      C1611   1.387       .  A
C1603      C1620   1.413       .  A
C1604      C1619   1.411       .  A
C1604      C1612   1.388       .  A
C1605      C1617   1.417       .  A
C1605      C1613   1.389       .  A
C1606      C1620   1.416       .  A
C1606      C1614   1.385       .  A
C1607      C1615   1.387       .  A
C1607      C1618   1.410       .  A
C1608      C1616   1.388       .  A
C1608      C1619   1.410       .  A
C1609      C1610   1.382       .  A
C1609      H1621   1.082       .  S
C1610      H1622   1.082       .  S
C1611      C1612   1.375       .  A
C1611      H1623   1.082       .  S
C1612      H1624   1.082       .  S
C1613      C1614   1.375       .  A
C1613      H1625   1.082       .  S
C1614      H1626   1.082       .  S
C1615      C1616   1.371       .  A
C1615      H1627   1.082       .  S
C1616      H1628   1.082       .  S
C1617      C2118   1.459       .  S
C1618      C2119   1.467       .  S
C1619      C2125   1.439       .  S
C1620      C2121   1.463       .  S
N1631      C1636   1.351       .  A
N1631      C1635   1.356       .  A
N1631      H1663   1.024       .  S
N1632      C1639   1.355       .  A
N1632      C1640   1.351       .  A
N1633      C1638   1.361       .  A
N1633      C1637   1.357       .  A
N1633      H1664   1.028       .  S
N1634      C1641   1.351       .  A
N1634      C1642   1.352       .  A
C1635      C1643   1.387       .  A
C1635      C1651   1.416       .  A
C1636      C1652   1.413       .  A
C1636      C1644   1.388       .  A
C1637      C1645   1.389       .  A
C1637      C1654   1.425       .  A
C1638      C1653   1.424       .  A
C1638      C1646   1.386       .  A
C1639      C1651   1.415       .  A
C1639      C1647   1.385       .  A
C1640      C1654   1.415       .  A
C1640      C1648   1.389       .  A
C1641      C1649   1.388       .  A
C1641      C1652   1.413       .  A
C1642      C1650   1.386       .  A
C1642      C1653   1.412       .  A
C1643      C1644   1.375       .  A
C1643      H1655   1.082       .  S
C1644      H1656   1.082       .  S
C1645      C1646   1.380       .  A
C1645      H1657   1.082       .  S
C1646      H1658   1.082       .  S
C1647      C1648   1.372       .  A
C1647      H1659   1.082       .  S
C1648      H1660   1.082       .  S
C1649      C1650   1.371       .  A
C1649      H1661   1.082       .  S
C1650      H1662   1.082       .  S
C1651      C2116   1.460       .  S
C1652      C2109   1.441       .  S
C1653      C2105   1.464       .  S
C1654      C2107   1.456       .  S
O1665      C1673   1.264       .  A
O1665     Co1685   1.973       .  S
O1666      C1674   1.296       .  A
O1666     Co1686   2.067       .  S
O1667      C1675   1.265       .  A
O1667     Co1687   2.024       .  S
O1668      C1676   1.264       .  A
O1669      C1675   1.245       .  A
O1669     Co1686   1.959       .  S
O1670      C1676   1.262       .  A
O1670     Co1685   1.994       .  S
O1671      C1674   1.273       .  A
O1671     Co1688   1.882       .  S
O1672      C1673   1.267       .  A
C1673      C2128   1.421       .  S
C1674      C2089   1.420       .  S
C1675      C2124   1.446       .  S
C1676      C2096   1.441       .  S
O1677      C1690   1.268       .  A
O1677     Co1685   1.979       .  S
O1678      C1691   1.297       .  A
O1678     Co1686   2.072       .  S
O1679      C1692   1.267       .  A
O1680      C1693   1.261       .  A
O1680     Co1688   2.018       .  S
O1681      C1693   1.244       .  A
O1681     Co1686   1.951       .  S
O1682      C1692   1.264       .  A
O1682     Co1685   1.993       .  S
O1683      C1690   1.273       .  A
O1684      C1691   1.272       .  A
O1684     Co1687   1.886       .  S
Co1686     O1689   2.110       .  S
Co1687     O1689   1.939       .  S
Co1688     O1689   1.926       .  S
C1690      C2101   1.430       .  S
C1691      C2112   1.423       .  S
C1692      C2113   1.443       .  S
C1693      C2100   1.438       .  S
N1694      C1699   1.355       .  A
N1694      C1698   1.352       .  A
N1694      H1726   1.038       .  S
N1695      C1702   1.351       .  A
N1695      C1703   1.354       .  A
N1696      C1701   1.350       .  A
N1696      C1700   1.355       .  A
N1696      H1727   1.036       .  S
N1697      C1704   1.351       .  A
N1697      C1705   1.349       .  A
C1698      C1706   1.389       .  A
C1698      C1714   1.414       .  A
C1699      C1715   1.413       .  A
C1699      C1707   1.386       .  A
C1700      C1708   1.387       .  A
C1700      C1717   1.415       .  A
C1701      C1716   1.412       .  A
C1701      C1709   1.388       .  A
C1702      C1714   1.414       .  A
C1702      C1710   1.388       .  A
C1703      C1717   1.414       .  A
C1703      C1711   1.385       .  A
C1704      C1712   1.386       .  A
C1704      C1715   1.409       .  A
C1705      C1713   1.389       .  A
C1705      C1716   1.411       .  A
C1706      C1707   1.374       .  A
C1706      H1718   1.082       .  S
C1707      H1719   1.082       .  S
C1708      C1709   1.375       .  A
C1708      H1720   1.082       .  S
C1709      H1721   1.082       .  S
C1710      C1711   1.374       .  A
C1710      H1722   1.082       .  S
C1711      H1723   1.082       .  S
C1712      C1713   1.371       .  A
C1712      H1724   1.082       .  S
C1713      H1725   1.082       .  S
C1714      C2087   1.446       .  S
C1715      C2086   1.452       .  S
C1716      C2092   1.439       .  S
C1717      C2093   1.458       .  S
N1728      C1733   1.351       .  A
N1728      C1732   1.355       .  A
N1728      H1760   1.040       .  S
N1729      C1736   1.350       .  A
N1729      C1737   1.349       .  A
N1730      C1735   1.353       .  A
N1730      C1734   1.351       .  A
N1730      H1761   1.039       .  S
N1731      C1738   1.349       .  A
N1731      C1739   1.352       .  A
C1732      C1740   1.386       .  A
C1732      C1748   1.411       .  A
C1733      C1749   1.413       .  A
C1733      C1741   1.389       .  A
C1734      C1742   1.387       .  A
C1734      C1751   1.411       .  A
C1735      C1750   1.412       .  A
C1735      C1743   1.387       .  A
C1736      C1748   1.407       .  A
C1736      C1744   1.386       .  A
C1737      C1751   1.408       .  A
C1737      C1745   1.387       .  A
C1738      C1746   1.388       .  A
C1738      C1749   1.411       .  A
C1739      C1747   1.386       .  A
C1739      C1750   1.411       .  A
C1740      C1741   1.376       .  A
C1740      H1752   1.082       .  S
C1741      H1753   1.082       .  S
C1742      C1743   1.376       .  A
C1742      H1754   1.082       .  S
C1743      H1755   1.082       .  S
C1744      C1745   1.373       .  A
C1744      H1756   1.082       .  S
C1745      H1757   1.082       .  S
C1746      C1747   1.375       .  A
C1746      H1758   1.082       .  S
C1747      H1759   1.082       .  S
C1748      C2084   1.450       .  S
C1749      C2081   1.443       .  S
C1750      C2097   1.454       .  S
C1751      C2104   1.444       .  S
C1762      N1780   1.340       .  A
C1762      C2117   1.443       .  S
C1762      C1799   1.469       .  S
N1763      N1780   1.321       .  A
N1763      N1785   1.324       .  A
C1764      N1789   1.354       .  A
C1764      H1809   1.081       .  S
C1764      C1802   1.474       .  S
H1765      C1806   1.082       .  S
C1766      N1790   1.349       .  A
C1766      H1795   1.082       .  S
C1766      C1770   1.467       .  S
Co1767     N1775   2.126   1_545  S
Co1767     N1783   2.074   1_545  S
N1768      C1806   1.336       .  A
N1768      N1775   1.322       .  A
Co1769     N1772   2.080       .  S
Co1769     N1776   2.103       .  S
Co1769    Cl1811   2.453   1_565  S
C1770      N1808   1.341       .  A
C1770      C2108   1.439       .  S
N1771      N1778   1.321       .  A
N1771      N1801   1.333       .  A
N1772      N1790   1.323       .  A
N1772      N1808   1.321       .  A
N1773      C1802   1.340       .  A
N1773      N1783   1.322       .  A
H1774      C1799   1.082       .  S
N1775      N1796   1.335       .  A
N1776      N1794   1.321       .  A
N1776      N1781   1.331       .  A
C1777      N1781   1.356       .  A
C1777      C2075   1.439       .  S
C1777      C1805   1.443       .  S
N1778      C1793   1.336       .  A
N1778     Co1800   2.074       .  S
C1779      N1807   1.337       .  A
C1779      H1813   1.082       .  S
C1779      C1782   1.446       .  S
C1782      N1803   1.356       .  A
C1782      C2077   1.442       .  S
N1783      N1789   1.322       .  A
N1784      C1810   1.352       .  A
N1784      N1786   1.322       .  A
N1784     Co1800   2.117       .  S
N1785      C1799   1.351       .  A
N1786      N1814   1.320       .  A
H1787      C1810   1.081       .  S
H1788      C1805   1.082       .  S
N1790     Co1804   2.103   1_565  S
N1791      N1803   1.331       .  A
N1791      N1807   1.322       .  A
C1792      N1796   1.362       .  A
C1792      C2120   1.453       .  S
C1792      C1806   1.444       .  S
C1793      H1797   1.082       .  S
C1793      C1812   1.445       .  S
N1794      C1805   1.334       .  A
N1794     Co1804   2.073   1_565  S
C1798      N1814   1.339       .  A
C1798      C2079   1.445       .  S
C1798      C1810   1.473       .  S
N1801      C1812   1.360       .  A
C1802      C2074   1.450       .  S
Co1804    Cl1811   2.457       .  S
C1812      C2106   1.449       .  S
O1815      C1823   1.258       .  A
O1816      C1824   1.263       .  A
O1816     Co1836   1.970       .  S
O1817      C1825   1.271       .  A
O1817     Co1837   2.008       .  S
O1818      C1826   1.259       .  A
O1818     Co1838   1.983   1_556  S
O1819      C1825   1.258       .  A
O1820      C1826   1.255       .  A
O1820     Co1835   1.966       .  S
O1821      C1824   1.277       .  A
O1821     Co1838   2.029       .  S
O1822      C1823   1.256       .  A
O1822     Co1837   1.981   1_556  S
C1823      C2064   1.430       .  S
C1824      C2049   1.439       .  S
C1825      C2053   1.421       .  S
C1826      C2057   1.419       .  S
O1827      C1840   1.287       .  A
O1827     Co1835   2.034       .  S
O1828      C1841   1.268       .  A
O1829      C1842   1.274       .  A
O1829     Co1837   1.935   1_556  S
O1830      C1843   1.264       .  A
O1830     Co1838   1.987       .  S
O1831      C1843   1.263       .  A
O1831     Co1836   1.993       .  S
O1832      C1842   1.285       .  A
O1833      C1840   1.276       .  A
O1833     Co1838   1.923   1_556  S
O1834      C1841   1.263       .  A
O1834     Co1837   1.979       .  S
Co1835     O1839   2.101   1_556  S
Co1836     O1839   2.014       .  S
Co1838     O1839   1.934       .  S
C1840      C2068   1.430       .  S
C1841      C2048   1.432       .  S
C1842      C2069   1.440       .  S
C1843      C2041   1.434       .  S
N1844      C1849   1.354       .  A
N1844      C1848   1.353       .  A
N1844      H1876   1.027       .  S
N1845      C1852   1.352       .  A
N1845      C1853   1.353       .  A
N1846      C1851   1.351       .  A
N1846      C1850   1.353       .  A
N1846      H1877   1.027       .  S
N1847      C1854   1.350       .  A
N1847      C1855   1.349       .  A
C1848      C1856   1.388       .  A
C1848      C1864   1.413       .  A
C1849      C1865   1.413       .  A
C1849      C1857   1.387       .  A
C1850      C1858   1.388       .  A
C1850      C1867   1.411       .  A
C1851      C1866   1.409       .  A
C1851      C1859   1.388       .  A
C1852      C1864   1.415       .  A
C1852      C1860   1.387       .  A
C1853      C1867   1.414       .  A
C1853      C1861   1.386       .  A
C1854      C1862   1.387       .  A
C1854      C1865   1.410       .  A
C1855      C1863   1.388       .  A
C1855      C1866   1.410       .  A
C1856      C1857   1.374       .  A
C1856      H1868   1.082       .  S
C1857      H1869   1.082       .  S
C1858      C1859   1.372       .  A
C1858      H1870   1.082       .  S
C1859      H1871   1.082       .  S
C1860      C1861   1.374       .  A
C1860      H1872   1.082       .  S
C1861      H1873   1.082       .  S
C1862      C1863   1.373       .  A
C1862      H1874   1.082       .  S
C1863      H1875   1.083       .  S
C1864      C2039   1.450       .  S
C1865      C2061   1.448       .  S
C1866      C2060   1.438       .  S
C1867      C2038   1.451       .  S
N1878      C1883   1.351       .  A
N1878      C1882   1.352       .  A
N1878      H1910   1.040       .  S
N1879      C1886   1.354       .  A
N1879      C1887   1.351       .  A
N1880      C1885   1.356       .  A
N1880      C1884   1.355       .  A
N1880      H1911   1.038       .  S
N1881      C1888   1.352       .  A
N1881      C1889   1.350       .  A
C1882      C1890   1.387       .  A
C1882      C1898   1.409       .  A
C1883      C1899   1.409       .  A
C1883      C1891   1.388       .  A
C1884      C1892   1.388       .  A
C1884      C1901   1.420       .  A
C1885      C1900   1.419       .  A
C1885      C1893   1.388       .  A
C1886      C1898   1.412       .  A
C1886      C1894   1.384       .  A
C1887      C1901   1.416       .  A
C1887      C1895   1.388       .  A
C1888      C1896   1.385       .  A
C1888      C1899   1.410       .  A
C1889      C1897   1.389       .  A
C1889      C1900   1.414       .  A
C1890      C1891   1.369       .  A
C1890      H1902   1.082       .  S
C1891      H1903   1.082       .  S
C1892      C1893   1.378       .  A
C1892      H1904   1.082       .  S
C1893      H1905   1.082       .  S
C1894      C1895   1.376       .  A
C1894      H1906   1.082       .  S
C1895      H1907   1.082       .  S
C1896      C1897   1.377       .  A
C1896      H1908   1.082       .  S
C1897      H1909   1.082       .  S
C1898      C2072   1.455       .  S
C1899      C2065   1.447       .  S
C1900      C2033   1.453       .  S
C1901      C2036   1.456       .  S
C1912      N1930   1.350       .  A
C1912      C2088   1.429       .  S
C1912      C1949   1.446       .  S
N1913      N1930   1.327       .  A
N1913      N1935   1.319       .  A
N1913     Co1950   2.088       .  S
C1914      N1939   1.342       .  A
C1914      H1959   1.082       .  S
C1914      C1952   1.456       .  S
H1915      C1956   1.081       .  S
C1916      N1940   1.343       .  A
C1916      H1945   1.082       .  S
C1916      C1920   1.464       .  S
Co1917     N1935   2.064       .  S
Co1917    Cl1961   2.445       .  S
N1918      C1956   1.344       .  A
N1918      N1925   1.320       .  A
N1918     Co1919   2.091       .  S
Co1919     N1922   2.070       .  S
C1920      N1958   1.345       .  A
C1920      C2037   1.436       .  S
N1921      N1928   1.321       .  A
N1921      N1951   1.325       .  A
N1921     Co1954   2.092       .  S
N1922      N1940   1.320       .  A
N1922      N1958   1.322       .  A
N1923      C1952   1.343       .  A
N1923      N1933   1.321       .  A
H1924      C1949   1.082       .  S
N1925      N1946   1.323       .  A
N1926      N1944   1.321       .  A
N1926      N1931   1.324       .  A
C1927      N1931   1.349       .  A
C1927      C2034   1.438       .  S
C1927      C1955   1.461       .  S
N1928      C1943   1.338       .  A
N1928     Co1950   2.083       .  S
C1929      N1957   1.337       .  A
C1929      H1963   1.081       .  S
C1929      C1932   1.449       .  S
C1932      N1953   1.351       .  A
C1932      C2085   1.437       .  S
N1933      N1939   1.319       .  A
N1934      C1960   1.340       .  A
N1934      N1936   1.320       .  A
N1935      C1949   1.335       .  A
N1936      N1964   1.326       .  A
H1937      C1960   1.082       .  S
H1938      C1955   1.082       .  S
N1941      N1953   1.328       .  A
N1941      N1957   1.321       .  A
C1942      N1946   1.345       .  A
C1942      C2083   1.436       .  S
C1942      C1956   1.458       .  S
C1943      H1947   1.082       .  S
C1943      C1962   1.456       .  S
N1944      C1955   1.341       .  A
C1948      N1964   1.352       .  A
C1948      C2035   1.442       .  S
C1948      C1960   1.458       .  S
Co1950    Cl1961   2.452       .  S
N1951      C1962   1.351       .  A
C1952      C2082   1.428       .  S
Co1954    Cl1961   2.451       .  S
C1962      C2040   1.435       .  S
N1965      C1970   1.357       .  A
N1965      C1969   1.358       .  A
N1965      H1997   1.039       .  S
N1966      C1973   1.351       .  A
N1966      C1974   1.351       .  A
N1967      C1972   1.352       .  A
N1967      C1971   1.353       .  A
N1967      H1998   1.038       .  S
N1968      C1975   1.351       .  A
N1968      C1976   1.352       .  A
C1969      C1977   1.387       .  A
C1969      C1985   1.422       .  A
C1970      C1986   1.422       .  A
C1970      C1978   1.388       .  A
C1971      C1979   1.388       .  A
C1971      C1988   1.413       .  A
C1972      C1987   1.412       .  A
C1972      C1980   1.387       .  A
C1973      C1985   1.410       .  A
C1973      C1981   1.387       .  A
C1974      C1988   1.411       .  A
C1974      C1982   1.387       .  A
C1975      C1983   1.387       .  A
C1975      C1986   1.413       .  A
C1976      C1984   1.387       .  A
C1976      C1987   1.412       .  A
C1977      C1978   1.380       .  A
C1977      H1989   1.082       .  S
C1978      H1990   1.082       .  S
C1979      C1980   1.376       .  A
C1979      H1991   1.082       .  S
C1980      H1992   1.082       .  S
C1981      C1982   1.373       .  A
C1981      H1993   1.082       .  S
C1982      H1994   1.082       .  S
C1983      C1984   1.373       .  A
C1983      H1995   1.082       .  S
C1984      H1996   1.082       .  S
C1985      C2080   1.460       .  S
C1986      C2078   1.457       .  S
C1987      C2045   1.451       .  S
C1988      C2044   1.451       .  S
N1999      C2004   1.351       .  A
N1999      C2003   1.347       .  A
N1999      H2031   1.041       .  S
N2000      C2007   1.349       .  A
N2000      C2008   1.349       .  A
N2001      C2006   1.357       .  A
N2001      C2005   1.361       .  A
N2001      H2032   1.038       .  S
N2002      C2009   1.354       .  A
N2002      C2010   1.348       .  A
C2003      C2011   1.389       .  A
C2003      C2019   1.404       .  A
C2004      C2020   1.403       .  A
C2004      C2012   1.386       .  A
C2005      C2013   1.387       .  A
C2005      C2022   1.426       .  A
C2006      C2021   1.426       .  A
C2006      C2014   1.388       .  A
C2007      C2019   1.406       .  A
C2007      C2015   1.385       .  A
C2008      C2022   1.412       .  A
C2008      C2016   1.388       .  A
C2009      C2017   1.383       .  A
C2009      C2020   1.410       .  A
C2010      C2018   1.390       .  A
C2010      C2021   1.415       .  A
C2011      C2012   1.370       .  A
C2011      H2023   1.082       .  S
C2012      H2024   1.082       .  S
C2013      C2014   1.382       .  A
C2013      H2025   1.082       .  S
C2014      H2026   1.082       .  S
C2015      C2016   1.377       .  A
C2015      H2027   1.082       .  S
C2016      H2028   1.082       .  S
C2017      C2018   1.378       .  A
C2017      H2029   1.082       .  S
C2018      H2030   1.082       .  S
C2019      C2056   1.438       .  S
C2020      C2052   1.454       .  S
C2021      C2076   1.455       .  S
C2022      C2073   1.465       .  S
C2033      C2034   1.208       .  T
C2035      C2036   1.210       .  T
C2037      C2038   1.206       .  T
C2039      C2040   1.206       .  T
C2041      C2042   1.206       .  T
C2042      C2043   1.412       .  S
C2043      C2044   1.206       .  T
C2045      C2046   1.206       .  T
C2046      C2047   1.411       .  S
C2047      C2048   1.205       .  T
C2049      C2050   1.209       .  T
C2050      C2051   1.418       .  S
C2051      C2052   1.210       .  T
C2053      C2054   1.199       .  T
C2054      C2055   1.402       .  S
C2055      C2056   1.200       .  T
C2057      C2058   1.197       .  T
C2058      C2059   1.398       .  S
C2059      C2060   1.198       .  T
C2061      C2062   1.204       .  T
C2062      C2063   1.409       .  S
C2063      C2064   1.203       .  T
C2065      C2066   1.205       .  T
C2066      C2067   1.411       .  S
C2067      C2068   1.205       .  T
C2069      C2070   1.210       .  T
C2070      C2071   1.419       .  S
C2071      C2072   1.210       .  T
C2073      C2074   1.216       .  T
C2075      C2076   1.209       .  T
C2077      C2078   1.211       .  T
C2079      C2080   1.213       .  T
C2081      C2082   1.202       .  T
C2083      C2084   1.207       .  T
C2085      C2086   1.207       .  T
C2087      C2088   1.203       .  T
C2089      C2090   1.197       .  T
C2090      C2091   1.397       .  S
C2091      C2092   1.198       .  T
C2093      C2094   1.211       .  T
C2094      C2095   1.420       .  S
C2095      C2096   1.210       .  T
C2097      C2098   1.209       .  T
C2098      C2099   1.417       .  S
C2099      C2100   1.209       .  T
C2101      C2102   1.202       .  T
C2102      C2103   1.406       .  S
C2103      C2104   1.202       .  T
C2105      C2106   1.215       .  T
C2107      C2108   1.209       .  T
C2109      C2110   1.200       .  T
C2110      C2111   1.401       .  S
C2111      C2112   1.199       .  T
C2113      C2114   1.212       .  T
C2114      C2115   1.422       .  S
C2115      C2116   1.212       .  T
C2117      C2118   1.211       .  T
C2119      C2120   1.217       .  T
C2121      C2122   1.214       .  T
C2122      C2123   1.425       .  S
C2123      C2124   1.214       .  T
C2125      C2126   1.199       .  T
C2126      C2127   1.399       .  S
C2127      C2128   1.197       .  T
