geometry optimzed in LAMMPS
_audit_creation_date              2020-11-30 
_audit_creation_method            'lammps2cif' 
_symmetry_space_group_name_H-M    'P1' 
_symmetry_Int_Tables_number       1 
_symmetry_cell_setting            triclinic 
loop_ 
_symmetry_equiv_pos_as_xyz 
  x,y,z 
_cell_length_a                    36.0586399 
_cell_length_b                    37.75225301311315 
_cell_length_c                    36.96634364881872 
_cell_angle_alpha                 87.7971348661518 
_cell_angle_beta                  97.5146290073806 
_cell_angle_gamma                 119.47193443945066 
loop_ 
_atom_site_label 
_atom_site_type_symbol 
_atom_site_fract_x 
_atom_site_fract_y 
_atom_site_fract_z 
_atom_site_charge 
C1          C  0.36046876  0.20370170  0.44446403     0.32500
C2          C  0.36097002  0.20409345  0.01695688     0.32500
C3          C  0.38196303  0.18176580  0.46561709    -0.03700
C4          C  0.38378085  0.24591190  0.46294701    -0.04500
C5          C  0.31609438  0.18380378  0.45718402    -0.04400
C6          C  0.38227557  0.18169942  0.00309572    -0.03700
C7          C  0.38402983  0.24617684  0.00052490    -0.04500
C8          C  0.31635895  0.18406739  0.99471036    -0.04400
C9          C  0.40073151  0.15869407  0.01708358    -0.29800
N10         N  0.41154228  0.14547634  0.48866079     0.16700
C11         C  0.40020366  0.15924035  0.45718289    -0.29800
H12         H  0.40377717  0.15225477  0.43014969     0.18700
C13         C  0.40599166  0.28621223  0.01263049    -0.28700
N14         N  0.41892365  0.30976096  0.98322807     0.15500
C15         C  0.40563167  0.28568319  0.45271534    -0.28700
C16         C  0.27435157  0.16228296  0.00156509    -0.29000
N17         N  0.24898464  0.14907430  0.46906393     0.16000
H18         H  0.26315595  0.15521848  0.02807583     0.18600
C19         C  0.27393243  0.16179927  0.44169170    -0.29000
H20         H  0.26236965  0.15431492  0.41297858     0.18600
H21         H  0.41105358  0.29637822  0.42527666     0.18600
H22         H  0.40482199  0.15118661  0.04534848     0.18700
H23         H  0.41176676  0.29741725  0.04046485     0.18600
C24         C  0.36331796  0.19327327  0.19627293     0.32500
C25         C  0.36659311  0.18880008  0.26898079     0.32500
C26         C  0.38809083  0.17261407  0.21428957    -0.03700
C27         C  0.38469621  0.23422858  0.21687701    -0.04500
C28         C  0.31968274  0.16996832  0.21030010    -0.04400
C29         C  0.38982564  0.17022442  0.25197569    -0.03700
C30         C  0.38640594  0.23195958  0.25448912    -0.04500
C31         C  0.32131082  0.16764495  0.24791097    -0.04400
C32         C  0.41275277  0.15057888  0.26342677    -0.29800
N33         N  0.42492307  0.14143514  0.23349362     0.16700
C34         C  0.40997919  0.15452233  0.20334719    -0.29800
H35         H  0.41394000  0.15032145  0.17558073     0.18700
C36         C  0.40571113  0.27115984  0.26858431    -0.28700
N37         N  0.41559185  0.29673307  0.24024595     0.15500
C38         C  0.40297632  0.27471006  0.20850794    -0.28700
C39         C  0.27955254  0.14725222  0.25581156    -0.29000
N40         N  0.25308357  0.13739324  0.22377309     0.16000
H41         H  0.26920079  0.14034298  0.28262888     0.18600
C42         C  0.27706843  0.15098544  0.19577453    -0.29000
H43         H  0.26440690  0.14752386  0.16712574     0.18800
H44         H  0.40651387  0.28722043  0.18152311     0.18600
H45         H  0.41927054  0.14274759  0.29110857     0.18700
H46         H  0.41178210  0.28039935  0.29708493     0.18600
O47         O  0.10119312  0.06693428  0.48612423    -0.77700
O48         O  0.44245170  0.05589547  0.43970506    -0.77700
O49         O  0.06383890  0.09405338  0.41309325    -0.77700
O50         O  0.47164806  0.49010287  0.03103376    -0.77600
O51         O  0.00136430  0.08757050  0.39655205    -0.77800
O52         O  0.04003118  0.53532479  0.03727876    -0.77700
O53         O  0.46625455  0.04899870  0.49463060    -0.77700
O54         O  0.10136087  0.05272358  0.42854984    -0.77700
C55         C  0.12087593  0.07243994  0.45856431     1.12000
C56         C  0.45069026  0.06580936  0.47305009     1.11900
C57         C  0.04113755  0.10991351  0.40349380     1.12100
C58         C  0.50585339  0.51366114  0.05202856     1.11900
O59         O  0.50792418  0.45559963  0.50393197    -0.77700
O60         O  0.47825578  0.00855707  0.36268661    -0.77700
O61         O  0.02167436  0.97607680  0.40883516    -0.77700
O62         O  0.40058628  0.47106704  0.47536982    -0.77700
O63         O  0.41401153  0.47301013  0.41762759    -0.77700
O64         O  0.06753957  0.48558009  0.45782409    -0.77700
O65         O  0.45615729  0.44659128  0.46119046    -0.77600
O66         O  0.04828147  0.03742455  0.35967674    -0.77700
Co67       Co  0.05158772  0.51292079  0.49350939     1.51500
Co68       Co  0.46581062  0.02985789  0.41018486     1.51700
Co69       Co  0.03940845  0.03471274  0.41056771     1.51600
Co70       Co  0.46114827  0.49861753  0.47613920     1.51500
O71         O  0.01425591  0.02943451  0.45562923    -1.39600
C72         C  0.47489559  0.43212602  0.48258278     1.12000
C73         C  0.01000804  0.01958688  0.34326080     1.12000
C74         C  0.04602997  0.46586997  0.42849682     1.12000
C75         C  0.38732009  0.46076265  0.44178767     1.12000
O76         O  0.09769513  0.05607448  0.22779648    -0.77700
O77         O  0.44416630  0.04350595  0.18760260    -0.77700
O78         O  0.05554962  0.08249533  0.18423666    -0.77700
O79         O  0.46342505  0.49165954  0.28574777    -0.77600
O80         O  0.00378302  0.07348931  0.14149577    -0.77800
O81         O  0.03345048  0.52052615  0.28273776    -0.77700
O82         O  0.49003182  0.05300835  0.23659090    -0.77700
O83         O  0.11111969  0.05801955  0.17005383    -0.77700
C84         C  0.12438615  0.06832294  0.20363607     1.12000
C85         C  0.46567571  0.06321523  0.21693023     1.11900
C86         C  0.03681136  0.09696179  0.16284583     1.12100
C87         C  0.00169859  0.00949677  0.30216337     1.11900
O88         O  0.51034159  0.44151388  0.24886979    -0.77700
O89         O  0.47167558  0.99376500  0.10814575    -0.77700
O90         O  0.04545037  0.98008879  0.15079100    -0.77700
O91         O  0.41034514  0.47636161  0.21687443    -0.77700
O92         O  0.41051357  0.46215358  0.15929936    -0.77700
O93         O  0.06925278  0.47318897  0.20571596    -0.77700
O94         O  0.44786704  0.43503192  0.23233021    -0.77600
O95         O  0.04005862  0.03898728  0.11439090    -0.77700
Co96       Co  0.04589523  0.49922640  0.23523836     1.51500
Co97       Co  0.46011880  0.01616712  0.15191611     1.51700
Co98       Co  0.05055786  0.03046956  0.16928492     1.51600
Co99       Co  0.47229767  0.49437244  0.23485672     1.51500
O100        O  0.99745017  0.99965183  0.18979482    -1.39600
C101        C  0.47056825  0.41917140  0.24192845     1.12000
C102        C  0.00585340  0.01542930  0.09339590     1.12000
C103        C  0.06101422  0.46327672  0.17237047     1.12000
C104        C  0.39083041  0.45664660  0.18685926     1.12000
C105        C  0.14511199  0.34028634  0.37644293     0.32500
C106        C  0.14838786  0.33581080  0.44915070     0.32500
C107        C  0.12187900  0.35886068  0.39344938    -0.03700
C108        C  0.12529988  0.29712619  0.39093349    -0.04500
C109        C  0.19039453  0.36144163  0.39751249    -0.04400
C110        C  0.12361415  0.35646982  0.43113542    -0.03700
C111        C  0.12701006  0.29485616  0.42854559    -0.04500
C112        C  0.19202291  0.35911697  0.43512332    -0.04400
C113        C  0.10172555  0.37456084  0.44207907    -0.29800
N114        N  0.08678120  0.38764868  0.41193332     0.16700
C115        C  0.09895142  0.37850615  0.38199944    -0.29800
H116        H  0.09243359  0.38633819  0.35431851     0.18700
C117        C  0.10873011  0.25437448  0.43691390    -0.28700
N118        N  0.09611418  0.23235212  0.40517546     0.15500
C119        C  0.10599454  0.25792609  0.37683756    -0.28700
C120        C  0.23463725  0.37809964  0.44964854    -0.29000
N121        N  0.25862211  0.39169318  0.42165014     0.16000
H122        H  0.24729916  0.38156013  0.47829797     0.18600
C123        C  0.23215289  0.38183501  0.38961171    -0.29000
H124        H  0.24250443  0.38874496  0.36279460     0.18600
H125        H  0.09992290  0.24868714  0.34833664     0.18600
H126        H  0.09776515  0.37876088  0.46984538     0.18700
H127        H  0.10519266  0.24186355  0.46389838     0.18600
C128        C  0.15073530  0.32499197  0.12846666     0.32500
C129        C  0.15123771  0.32538876  0.20095942     0.32500
C130        C  0.12942953  0.34738686  0.14232591    -0.03700
C131        C  0.12767606  0.28290979  0.14490098    -0.04500
C132        C  0.19534668  0.34501956  0.15071276    -0.04400
C133        C  0.12974278  0.34732302  0.17980453    -0.03700
C134        C  0.12792571  0.28317734  0.18247885    -0.04500
C135        C  0.19561177  0.34528574  0.18823899    -0.04400
C136        C  0.11150164  0.36984853  0.18823709    -0.29800
N137        N  0.10016210  0.38361036  0.15675825     0.16700
C138        C  0.11097281  0.37039105  0.12833659    -0.29800
H139        H  0.10688158  0.37789689  0.10007024     0.18700
C140        C  0.10607505  0.24340676  0.19271280    -0.28700
N141        N  0.09278267  0.21932697  0.16220125     0.15500
C142        C  0.10571413  0.24287368  0.13279766    -0.28700
C143        C  0.23777376  0.36729060  0.20373073    -0.29000
N144        N  0.26272132  0.38001344  0.17635852     0.16000
H145        H  0.24933708  0.37477665  0.23244431     0.18600
C146        C  0.23735407  0.36680291  0.14385758    -0.29000
H147        H  0.24854935  0.37386515  0.11734690     0.18600
H148        H  0.09993854  0.23166663  0.10496362     0.18600
H149        H  0.10792847  0.37683567  0.21526973     0.18700
H150        H  0.10065360  0.23271391  0.22015146     0.18600
C151        C  0.15093032  0.32677607  0.23960762    -0.16000
C152        C  0.14865017  0.33164628  0.27056481     0.08000
C153        C  0.14533095  0.33848794  0.30607661     0.09900
C154        C  0.14387124  0.34176234  0.33754735    -0.16900
C155        C  0.15075522  0.32513329  0.08965521    -0.16000
C156        C  0.15103034  0.32686833  0.05757017     0.08000
C157        C  0.15094814  0.33020757  0.02024393     0.09900
C158        C  0.15013976  0.33315924  0.48811444    -0.16900
C159        C  0.07131620  0.17673272  0.16157588    -0.10800
C160        C  0.05424784  0.14015672  0.16168625    -0.12400
C161        C  0.34557458  0.42856377  0.18381625    -0.10800
C162        C  0.30733263  0.40576397  0.18066254    -0.12400
C163        C  0.07153971  0.43431483  0.15976470    -0.10800
C164        C  0.08374559  0.41044473  0.15552382    -0.12400
C165        C  0.06026053  0.15328564  0.40143806    -0.10800
C166        C  0.07671933  0.18986640  0.40239168    -0.12400
C167        C  0.30366639  0.41356232  0.42567629    -0.10800
C168        C  0.34231084  0.43369531  0.43125882    -0.12400
C169        C  0.05317669  0.43416944  0.41691628    -0.10800
C170        C  0.06672795  0.41130364  0.41273319    -0.12400
C171        C  0.45852839  0.09491490  0.22851196    -0.10800
C172        C  0.44497658  0.11778029  0.23269492    -0.12400
C173        C  0.45144491  0.37579933  0.24398325    -0.10800
C174        C  0.43498619  0.33921869  0.24302923    -0.12400
C175        C  0.16939514  0.09539059  0.21416470    -0.10800
C176        C  0.20803944  0.11552394  0.21974698    -0.12400
C177        C  0.44016438  0.09477165  0.48565393    -0.10800
C178        C  0.42795850  0.11864185  0.48989406    -0.12400
C179        C  0.45745904  0.38893121  0.48374469    -0.10800
C180        C  0.44039044  0.35235525  0.48385531    -0.12400
C181        C  0.16613160  0.10052305  0.46160637    -0.10800
C182        C  0.20437345  0.12332329  0.46475959    -0.12400
C183        C  0.36077676  0.20231706  0.40581568    -0.16000
C184        C  0.36305641  0.19744686  0.37485835     0.08000
C185        C  0.36637446  0.19060287  0.33934681     0.09900
C186        C  0.36783366  0.18732594  0.30787638    -0.16900
C187        C  0.36094975  0.20394943  0.05576834    -0.16000
C188        C  0.36067500  0.20221308  0.08785339     0.08000
C189        C  0.36075781  0.19887399  0.12517964     0.09900
C190        C  0.36156637  0.19592332  0.15730917    -0.16900
C191        C  0.36046871  0.20370171  0.94446404     0.32500
C192        C  0.36097006  0.20409345  0.51695686     0.32500
C193        C  0.38196296  0.18176577  0.96561711    -0.03700
C194        C  0.38378079  0.24591191  0.96294698    -0.04500
C195        C  0.31609432  0.18380382  0.95718403    -0.04400
C196        C  0.38227565  0.18169945  0.50309572    -0.03700
C197        C  0.38402992  0.24617685  0.50052495    -0.04500
C198        C  0.31635899  0.18406736  0.49471033    -0.04400
C199        C  0.40073145  0.15869405  0.51708338    -0.29800
N200        N  0.41154238  0.14547642  0.98866083     0.16700
C201        C  0.40020366  0.15924037  0.95718298    -0.29800
H202        H  0.40377719  0.15225476  0.93014961     0.18700
C203        C  0.40599164  0.28621220  0.51263037    -0.28700
N204        N  0.41892368  0.30976096  0.48322810     0.15500
C205        C  0.40563176  0.28568322  0.95271534    -0.28700
C206        C  0.27435163  0.16228297  0.50156497    -0.29000
N207        N  0.24898463  0.14907428  0.96906392     0.16000
H208        H  0.26315582  0.15521837  0.52807624     0.18600
C209        C  0.27393244  0.16179932  0.94169190    -0.29000
H210        H  0.26236924  0.15431473  0.91297773     0.18600
H211        H  0.41105384  0.29637829  0.92527663     0.18600
H212        H  0.40482197  0.15118630  0.54534916     0.18700
H213        H  0.41176682  0.29741760  0.54046560     0.18600
C214        C  0.36331803  0.19327327  0.69627296     0.32500
C215        C  0.36659306  0.18880007  0.76898081     0.32500
C216        C  0.38809093  0.17261413  0.71428961    -0.03700
C217        C  0.38469621  0.23422858  0.71687701    -0.04500
C218        C  0.31968274  0.16996830  0.71030009    -0.04400
C219        C  0.38982565  0.17022443  0.75197570    -0.03700
C220        C  0.38640585  0.23195959  0.75448912    -0.04500
C221        C  0.32131077  0.16764489  0.74791099    -0.04400
C222        C  0.41275283  0.15057886  0.76342689    -0.29800
N223        N  0.42492318  0.14143523  0.73349360     0.16700
C224        C  0.40997933  0.15452242  0.70334721    -0.29800
H225        H  0.41394016  0.15032156  0.67558077     0.18700
C226        C  0.40571105  0.27115989  0.76858423    -0.28700
N227        N  0.41559184  0.29673309  0.74024586     0.15500
C228        C  0.40297639  0.27471004  0.70850788    -0.28700
C229        C  0.27955245  0.14725220  0.75581159    -0.29000
N230        N  0.25308352  0.13739327  0.72377302     0.16000
H231        H  0.26920066  0.14034296  0.78262870     0.18600
C232        C  0.27706852  0.15098552  0.69577470    -0.29000
H233        H  0.26440656  0.14752378  0.66712483     0.18800
H234        H  0.40651407  0.28722039  0.68152304     0.18600
H235        H  0.41927040  0.14274777  0.79110794     0.18700
H236        H  0.41178206  0.28039950  0.79708493     0.18600
O237        O  0.10119304  0.06693430  0.98612418    -0.77700
O238        O  0.44245173  0.05589550  0.93970504    -0.77700
O239        O  0.06383886  0.09405341  0.91309317    -0.77700
O240        O  0.47164813  0.49010271  0.53103379    -0.77600
O241        O  0.00136423  0.08757052  0.89655203    -0.77800
O242        O  0.04003109  0.53532467  0.53727869    -0.77700
O243        O  0.46625475  0.04899880  0.99463057    -0.77700
O244        O  0.10136095  0.05272364  0.92854978    -0.77700
C245        C  0.12087593  0.07243995  0.95856430     1.12000
C246        C  0.45069034  0.06580940  0.97305010     1.11900
C247        C  0.04113748  0.10991353  0.90349381     1.12100
C248        C  0.50585347  0.51366113  0.55202854     1.11900
O249        O  0.50792422  0.45559963  0.00393193    -0.77700
O250        O  0.47825584  0.00855714  0.86268652    -0.77700
O251        O  0.02167438  0.97607684  0.90883526    -0.77700
O252        O  0.40058621  0.47106705  0.97536979    -0.77700
O253        O  0.41401143  0.47300998  0.91762757    -0.77700
O254        O  0.06753954  0.48558012  0.95782409    -0.77700
O255        O  0.45615733  0.44659126  0.96119037    -0.77600
O256        O  0.04828153  0.03742463  0.85967668    -0.77700
Co257      Co  0.05158779  0.51292084  0.99350947     1.51500
Co258      Co  0.46581073  0.02985793  0.91018486     1.51700
Co259      Co  0.03940852  0.03471278  0.91056768     1.51600
Co260      Co  0.46114821  0.49861755  0.97613914     1.51500
O261        O  0.01425594  0.02943454  0.95562923    -1.39600
C262        C  0.47489562  0.43212601  0.98258275     1.12000
C263        C  0.01000807  0.01958694  0.84326083     1.12000
C264        C  0.04602994  0.46587000  0.92849681     1.12000
C265        C  0.38732002  0.46076260  0.94178765     1.12000
O266        O  0.09769508  0.05607453  0.72779642    -0.77700
O267        O  0.44416624  0.04350601  0.68760258    -0.77700
O268        O  0.05554966  0.08249525  0.68423659    -0.77700
O269        O  0.46342499  0.49165956  0.78574777    -0.77600
O270        O  0.00378299  0.07348931  0.64149578    -0.77800
O271        O  0.03345045  0.52052617  0.78273768    -0.77700
O272        O  0.49003189  0.05300839  0.73659076    -0.77700
O273        O  0.11111969  0.05801960  0.67005374    -0.77700
C274        C  0.12438612  0.06832299  0.70363600     1.12000
C275        C  0.46567573  0.06321527  0.71693019     1.11900
C276        C  0.03681141  0.09696173  0.66284577     1.12100
C277        C  0.00169859  0.00949681  0.80216343     1.11900
O278        O  0.51034167  0.44151394  0.74886972    -0.77700
O279        O  0.47167555  0.99376502  0.60814578    -0.77700
O280        O  0.04545054  0.98008885  0.65079103    -0.77700
O281        O  0.41034526  0.47636167  0.71687457    -0.77700
O282        O  0.41051369  0.46215357  0.65929952    -0.77700
O283        O  0.06925275  0.47318901  0.70571592    -0.77700
O284        O  0.44786714  0.43503193  0.73233014    -0.77600
O285        O  0.04005865  0.03898734  0.61439099    -0.77700
Co286      Co  0.04589521  0.49922645  0.73523830     1.51500
Co287      Co  0.46011875  0.01616717  0.65191609     1.51700
Co288      Co  0.05055795  0.03046954  0.66928499     1.51600
Co289      Co  0.47229777  0.49437248  0.73485676     1.51500
O290        O  0.99745021  0.99965187  0.68979491    -1.39600
C291        C  0.47056836  0.41917142  0.74192834     1.12000
C292        C  0.00585345  0.01542934  0.59339593     1.12000
C293        C  0.06101415  0.46327675  0.67237043     1.12000
C294        C  0.39083053  0.45664664  0.68685941     1.12000
C295        C  0.14511205  0.34028629  0.87644292     0.32500
C296        C  0.14838792  0.33581081  0.94915071     0.32500
C297        C  0.12187902  0.35886062  0.89344933    -0.03700
C298        C  0.12529999  0.29712618  0.89093351    -0.04500
C299        C  0.19039457  0.36144156  0.89751253    -0.04400
C300        C  0.12361420  0.35646977  0.93113536    -0.03700
C301        C  0.12701016  0.29485617  0.92854560    -0.04500
C302        C  0.19202299  0.35911695  0.93512334    -0.04400
C303        C  0.10172549  0.37456064  0.94207902    -0.29800
N304        N  0.08678105  0.38764847  0.91193335     0.16700
C305        C  0.09895127  0.37850597  0.88199941    -0.29800
H306        H  0.09243343  0.38633802  0.85431860     0.18700
C307        C  0.10873010  0.25437451  0.93691390    -0.28700
N308        N  0.09611414  0.23235213  0.90517554     0.15500
C309        C  0.10599445  0.25792602  0.87683741    -0.28700
C310        C  0.23463739  0.37809966  0.94964859    -0.29000
N311        N  0.25862216  0.39169319  0.92165009     0.16000
H312        H  0.24729924  0.38156021  0.97829761     0.18600
C313        C  0.23215292  0.38183504  0.88961157    -0.29000
H314        H  0.24250410  0.38874486  0.86279517     0.18600
H315        H  0.09992295  0.24868735  0.84833748     0.18600
H316        H  0.09776513  0.37876070  0.96984556     0.18700
H317        H  0.10519265  0.24186358  0.96389853     0.18600
C318        C  0.15073535  0.32499193  0.62846665     0.32500
C319        C  0.15123780  0.32538880  0.70095941     0.32500
C320        C  0.12942954  0.34738685  0.64232585    -0.03700
C321        C  0.12767619  0.28290976  0.64490098    -0.04500
C322        C  0.19534677  0.34501959  0.65071277    -0.04400
C323        C  0.12974288  0.34732306  0.67980445    -0.03700
C324        C  0.12792580  0.28317733  0.68247885    -0.04500
C325        C  0.19561188  0.34528576  0.68823903    -0.04400
C326        C  0.11150173  0.36984860  0.68823720    -0.29800
N327        N  0.10016209  0.38361037  0.65675825     0.16700
C328        C  0.11097275  0.37039106  0.62833657    -0.29800
H329        H  0.10688149  0.37789695  0.60007026     0.18700
C330        C  0.10607501  0.24340677  0.69271267    -0.28700
N331        N  0.09278263  0.21932694  0.66220125     0.15500
C332        C  0.10571426  0.24287362  0.63279766    -0.28700
C333        C  0.23777397  0.36729064  0.70373092    -0.29000
N334        N  0.26272143  0.38001344  0.67635846     0.16000
H335        H  0.24933702  0.37477649  0.73244361     0.18600
C336        C  0.23735408  0.36680293  0.64385776    -0.29000
H337        H  0.24854970  0.37386546  0.61734612     0.18600
H338        H  0.09993876  0.23166658  0.60496371     0.18600
H339        H  0.10792865  0.37683548  0.71526908     0.18700
H340        H  0.10065341  0.23271370  0.72015195     0.18600
C341        C  0.15093027  0.32677611  0.73960761    -0.16000
C342        C  0.14865008  0.33164632  0.77056479     0.08000
C343        C  0.14533089  0.33848796  0.80607661     0.09900
C344        C  0.14387122  0.34176231  0.83754736    -0.16900
C345        C  0.15075524  0.32513316  0.58965518    -0.16000
C346        C  0.15103023  0.32686824  0.55757013     0.08000
C347        C  0.15094798  0.33020739  0.52024389     0.09900
C348        C  0.15013975  0.33315931  0.98811445    -0.16900
C349        C  0.07131623  0.17673264  0.66157588    -0.10800
C350        C  0.05424787  0.14015667  0.66168634    -0.12400
C351        C  0.34557470  0.42856384  0.68381634    -0.10800
C352        C  0.30733275  0.40576399  0.68066251    -0.12400
C353        C  0.07153963  0.43431484  0.65976465    -0.10800
C354        C  0.08374554  0.41044473  0.65552389    -0.12400
C355        C  0.06026051  0.15328566  0.90143806    -0.10800
C356        C  0.07671942  0.18986642  0.90239174    -0.12400
C357        C  0.30366639  0.41356234  0.92567617    -0.10800
C358        C  0.34231084  0.43369530  0.93125877    -0.12400
C359        C  0.05317671  0.43416948  0.91691625    -0.10800
C360        C  0.06672802  0.41130364  0.91273328    -0.12400
C361        C  0.45852853  0.09491500  0.72851199    -0.10800
C362        C  0.44497674  0.11778041  0.73269493    -0.12400
C363        C  0.45144509  0.37579936  0.74398313    -0.10800
C364        C  0.43498634  0.33921872  0.74302911    -0.12400
C365        C  0.16939509  0.09539060  0.71416460    -0.10800
C366        C  0.20803941  0.11552391  0.71974689    -0.12400
C367        C  0.44016439  0.09477162  0.98565406    -0.10800
C368        C  0.42795852  0.11864186  0.98989419    -0.12400
C369        C  0.45745910  0.38893120  0.98374478    -0.10800
C370        C  0.44039043  0.35235523  0.98385540    -0.12400
C371        C  0.16613160  0.10052308  0.96160645    -0.10800
C372        C  0.20437343  0.12332331  0.96475969    -0.12400
C373        C  0.36077669  0.20231708  0.90581569    -0.16000
C374        C  0.36305638  0.19744690  0.87485837     0.08000
C375        C  0.36637459  0.19060291  0.83934689     0.09900
C376        C  0.36783363  0.18732596  0.80787643    -0.16900
C377        C  0.36094969  0.20394944  0.55576833    -0.16000
C378        C  0.36067490  0.20221310  0.58785336     0.08000
C379        C  0.36075780  0.19887403  0.62517964     0.09900
C380        C  0.36156651  0.19592334  0.65730918    -0.16900
C381        C  0.36046852  0.70370152  0.44446403     0.32500
C382        C  0.36096999  0.70409334  0.01695692     0.32500
C383        C  0.38196282  0.68176562  0.46561708    -0.03700
C384        C  0.38378059  0.74591173  0.46294700    -0.04500
C385        C  0.31609416  0.68380358  0.45718407    -0.04400
C386        C  0.38227560  0.68169940  0.00309574    -0.03700
C387        C  0.38402980  0.74617674  0.00052496    -0.04500
C388        C  0.31635889  0.68406724  0.99471040    -0.04400
C389        C  0.40073147  0.65869399  0.01708356    -0.29800
N390        N  0.41154231  0.64547636  0.48866079     0.16700
C391        C  0.40020358  0.65924026  0.45718289    -0.29800
H392        H  0.40377708  0.65225471  0.43014975     0.18700
C393        C  0.40599163  0.78621209  0.01263039    -0.28700
N394        N  0.41892353  0.80976084  0.98322810     0.15500
C395        C  0.40563156  0.78568303  0.45271535    -0.28700
C396        C  0.27435153  0.66228283  0.00156512    -0.29000
N397        N  0.24898447  0.64907411  0.46906401     0.16000
H398        H  0.26315586  0.65521830  0.02807608     0.18600
C399        C  0.27393218  0.66179910  0.44169177    -0.29000
H400        H  0.26236938  0.65431482  0.41297872     0.18600
H401        H  0.41105354  0.79637804  0.42527668     0.18600
H402        H  0.40482187  0.65118646  0.04534846     0.18700
H403        H  0.41176693  0.79741749  0.04046559     0.18600
C404        C  0.36331781  0.69327310  0.19627301     0.32500
C405        C  0.36659298  0.68879991  0.26898086     0.32500
C406        C  0.38809071  0.67261394  0.21428966    -0.03700
C407        C  0.38469603  0.73422841  0.21687709    -0.04500
C408        C  0.31968255  0.66996816  0.21030015    -0.04400
C409        C  0.38982555  0.67022426  0.25197576    -0.03700
C410        C  0.38640577  0.73195942  0.25448920    -0.04500
C411        C  0.32131065  0.66764476  0.24791103    -0.04400
C412        C  0.41275270  0.65057871  0.26342678    -0.29800
N413        N  0.42492297  0.64143501  0.23349360     0.16700
C414        C  0.40997910  0.65452224  0.20334718    -0.29800
H415        H  0.41393991  0.65032146  0.17558092     0.18700
C416        C  0.40571084  0.77115970  0.26858433    -0.28700
N417        N  0.41559158  0.79673290  0.24024596     0.15500
C418        C  0.40297614  0.77470986  0.20850797    -0.28700
C419        C  0.27955235  0.64725202  0.25581159    -0.29000
N420        N  0.25308335  0.63739309  0.22377314     0.16000
H421        H  0.26920057  0.64034270  0.28262897     0.18600
C422        C  0.27706824  0.65098535  0.19577459    -0.29000
H423        H  0.26440667  0.64752376  0.16712576     0.18800
H424        H  0.40651378  0.78722020  0.18152316     0.18600
H425        H  0.41927051  0.64274737  0.29110857     0.18700
H426        H  0.41178179  0.78039928  0.29708502     0.18600
O427        O  0.10119286  0.56693413  0.48612423    -0.77700
O428        O  0.44245182  0.55589559  0.43970490    -0.77700
O429        O  0.06383875  0.59405332  0.41309326    -0.77700
O430        O  0.47164799  0.99010270  0.03103390    -0.77600
O431        O  0.00136405  0.58757033  0.39655217    -0.77800
O432        O  0.04003122  0.03532483  0.03727873    -0.77700
O433        O  0.46625483  0.54899888  0.49463042    -0.77700
O434        O  0.10136076  0.55272349  0.42854987    -0.77700
C435        C  0.12087575  0.57243977  0.45856438     1.12000
C436        C  0.45069039  0.56580946  0.47304995     1.11900
C437        C  0.04113731  0.60991338  0.40349392     1.12100
C438        C  0.50585334  0.01366100  0.05202865     1.11900
O439        O  0.50792408  0.95559949  0.50393204    -0.77700
O440        O  0.47825600  0.50855729  0.36268644    -0.77700
O441        O  0.02167436  0.47607677  0.40883521    -0.77700
O442        O  0.40058601  0.97106703  0.47536989    -0.77700
O443        O  0.41401126  0.97301001  0.41762767    -0.77700
O444        O  0.06753969  0.98558027  0.45782399    -0.77700
O445        O  0.45615713  0.94659113  0.46119050    -0.77600
O446        O  0.04828140  0.53742447  0.35967678    -0.77700
Co447      Co  0.05158788  0.01292096  0.49350934     1.51500
Co448      Co  0.46581091  0.52985803  0.41018481     1.51700
Co449      Co  0.03940838  0.53471270  0.41056774     1.51600
Co450      Co  0.46114800  0.99861741  0.47613923     1.51500
O451        O  0.01425574  0.52943439  0.45562930    -1.39600
C452        C  0.47489544  0.93212588  0.48258287     1.12000
C453        C  0.01000792  0.51958677  0.34326093     1.12000
C454        C  0.04603005  0.96587008  0.42849676     1.12000
C455        C  0.38731983  0.96076253  0.44178775     1.12000
O456        O  0.09769499  0.55607431  0.22779656    -0.77700
O457        O  0.44416642  0.54350607  0.18760262    -0.77700
O458        O  0.05554955  0.58249523  0.18423671    -0.77700
O459        O  0.46342481  0.99165946  0.28574785    -0.77600
O460        O  0.00378292  0.57348912  0.14149583    -0.77800
O461        O  0.03345062  0.02052628  0.28273761    -0.77700
O462        O  0.49003202  0.55300842  0.23659080    -0.77700
O463        O  0.11111947  0.55801943  0.17005384    -0.77700
C464        C  0.12438595  0.56832282  0.20363609     1.12000
C465        C  0.46567588  0.56321531  0.21693021     1.11900
C466        C  0.03681126  0.59696164  0.16284585     1.12100
C467        C  0.00169844  0.50949663  0.30216351     1.11900
O468        O  0.51034143  0.94151374  0.24886982    -0.77700
O469        O  0.47167566  0.49376517  0.10814569    -0.77700
O470        O  0.04545033  0.48008868  0.15079119    -0.77700
O471        O  0.41034512  0.97636151  0.21687459    -0.77700
O472        O  0.41051349  0.96215338  0.15929953    -0.77700
O473        O  0.06925285  0.97318907  0.20571577    -0.77700
O474        O  0.44786695  0.93503183  0.23233025    -0.77600
O475        O  0.04005856  0.53898709  0.11439109    -0.77700
Co476      Co  0.04589532  0.99922654  0.23523818     1.51500
Co477      Co  0.46011892  0.51616729  0.15191607     1.51700
Co478      Co  0.05055777  0.53046941  0.16928511     1.51600
Co479      Co  0.47229763  0.99437241  0.23485686     1.51500
O480        O  0.99745010  0.49965171  0.18979501    -1.39600
C481        C  0.47056812  0.91917126  0.24192844     1.12000
C482        C  0.00585338  0.51542917  0.09339603     1.12000
C483        C  0.06101421  0.96327678  0.17237027     1.12000
C484        C  0.39083036  0.95664646  0.18685945     1.12000
C485        C  0.14511187  0.84028615  0.37644297     0.32500
C486        C  0.14838765  0.83581061  0.44915076     0.32500
C487        C  0.12187885  0.85886049  0.39344938    -0.03700
C488        C  0.12529974  0.79712602  0.39093351    -0.04500
C489        C  0.19039435  0.86144140  0.39751261    -0.04400
C490        C  0.12361395  0.85646962  0.43113542    -0.03700
C491        C  0.12700989  0.79485598  0.42854562    -0.04500
C492        C  0.19202273  0.85911676  0.43512343    -0.04400
C493        C  0.10172540  0.87456070  0.44207906    -0.29800
N494        N  0.08678113  0.88764859  0.41193331     0.16700
C495        C  0.09895136  0.87850604  0.38199947    -0.29800
H496        H  0.09243362  0.88633821  0.35431834     0.18700
C497        C  0.10872983  0.75437430  0.43691391    -0.28700
N498        N  0.09611387  0.73235194  0.40517545     0.15500
C499        C  0.10599427  0.75792593  0.37683757    -0.28700
C500        C  0.23463713  0.87809946  0.44964869    -0.29000
N501        N  0.25862193  0.89169300  0.42165018     0.16000
H502        H  0.24729897  0.88156001  0.47829770     0.18600
C503        C  0.23215266  0.88183483  0.38961178    -0.29000
H504        H  0.24250408  0.88874483  0.36279476     0.18600
H505        H  0.09992263  0.74868695  0.34833658     0.18600
H506        H  0.09776505  0.87876081  0.46984540     0.18700
H507        H  0.10519238  0.74186338  0.46389837     0.18600
C508        C  0.15073520  0.82499182  0.12846667     0.32500
C509        C  0.15123755  0.82538862  0.20095941     0.32500
C510        C  0.12942943  0.84738674  0.14232590    -0.03700
C511        C  0.12767596  0.78290963  0.14490098    -0.04500
C512        C  0.19534658  0.84501940  0.15071278    -0.04400
C513        C  0.12974267  0.84732291  0.17980451    -0.03700
C514        C  0.12792554  0.78317718  0.18247885    -0.04500
C515        C  0.19561164  0.84528557  0.18823904    -0.04400
C516        C  0.11150165  0.86984856  0.18823711    -0.29800
N517        N  0.10016211  0.88361036  0.15675824     0.16700
C518        C  0.11097286  0.87039108  0.12833659    -0.29800
H519        H  0.10688176  0.87789701  0.10007031     0.18700
C520        C  0.10607478  0.74340664  0.19271269    -0.28700
N521        N  0.09278241  0.71932680  0.16220125     0.15500
C522        C  0.10571402  0.74287351  0.13279766    -0.28700
C523        C  0.23777364  0.86729042  0.20373079    -0.29000
N524        N  0.26272121  0.88001324  0.17635855     0.16000
H525        H  0.24933695  0.87477647  0.23244434     0.18600
C526        C  0.23735393  0.86680269  0.14385777    -0.29000
H527        H  0.24854957  0.87386516  0.11734626     0.18600
H528        H  0.09993852  0.73166647  0.10496366     0.18600
H529        H  0.10792857  0.87683571  0.21526958     0.18700
H530        H  0.10065320  0.73271356  0.22015194     0.18600
C531        C  0.15093006  0.82677591  0.23960759    -0.16000
C532        C  0.14865006  0.83164612  0.27056482     0.08000
C533        C  0.14533091  0.83848778  0.30607664     0.09900
C534        C  0.14387119  0.84176218  0.33754738    -0.16900
C535        C  0.15075516  0.82513320  0.08965523    -0.16000
C536        C  0.15103039  0.82686838  0.05757021     0.08000
C537        C  0.15094812  0.83020746  0.02024397     0.09900
C538        C  0.15013951  0.83315912  0.48811449    -0.16900
C539        C  0.07131602  0.67673255  0.16157588    -0.10800
C540        C  0.05424763  0.64015656  0.16168627    -0.12400
C541        C  0.34557449  0.92856368  0.18381645    -0.10800
C542        C  0.30733255  0.90576383  0.18066263    -0.12400
C543        C  0.07153976  0.93431490  0.15976448    -0.10800
C544        C  0.08374567  0.91044481  0.15552377    -0.12400
C545        C  0.06026028  0.65328548  0.40143811    -0.10800
C546        C  0.07671915  0.68986624  0.40239168    -0.12400
C547        C  0.30366618  0.91356216  0.42567628    -0.10800
C548        C  0.34231065  0.93369514  0.43125888    -0.12400
C549        C  0.05317681  0.93416955  0.41691626    -0.10800
C550        C  0.06672804  0.91130371  0.41273319    -0.12400
C551        C  0.45852852  0.59491496  0.22851195    -0.10800
C552        C  0.44497653  0.61778021  0.23269481    -0.12400
C553        C  0.45144483  0.87579918  0.24398323    -0.10800
C554        C  0.43498608  0.83921853  0.24302922    -0.12400
C555        C  0.16939491  0.59539045  0.21416468    -0.10800
C556        C  0.20803923  0.61552376  0.21974700    -0.12400
C557        C  0.44016444  0.59477168  0.48565390    -0.10800
C558        C  0.42795851  0.61864182  0.48989407    -0.12400
C559        C  0.45745887  0.88893106  0.48374484    -0.10800
C560        C  0.44039023  0.85235509  0.48385536    -0.12400
C561        C  0.16613145  0.60052285  0.46160656    -0.10800
C562        C  0.20437325  0.62332312  0.46475978    -0.12400
C563        C  0.36077652  0.70231690  0.40581567    -0.16000
C564        C  0.36305630  0.69744671  0.37485837     0.08000
C565        C  0.36637441  0.69060271  0.33934688     0.09900
C566        C  0.36783357  0.68732577  0.30787645    -0.16900
C567        C  0.36094970  0.70394927  0.05576840    -0.16000
C568        C  0.36067492  0.70221297  0.08785344     0.08000
C569        C  0.36075770  0.69887405  0.12517972     0.09900
C570        C  0.36156628  0.69592322  0.15730925    -0.16900
C571        C  0.36046863  0.70370158  0.94446407     0.32500
C572        C  0.36096988  0.70409327  0.51695687     0.32500
C573        C  0.38196292  0.68176571  0.96561713    -0.03700
C574        C  0.38378070  0.74591179  0.96294701    -0.04500
C575        C  0.31609424  0.68380365  0.95718407    -0.04400
C576        C  0.38227545  0.68169927  0.50309570    -0.03700
C577        C  0.38402967  0.74617669  0.50052493    -0.04500
C578        C  0.31635880  0.68406713  0.49471037    -0.04400
C579        C  0.40073140  0.65869396  0.51708342    -0.29800
N580        N  0.41154228  0.64547636  0.98866080     0.16700
C581        C  0.40020356  0.65924025  0.95718290    -0.29800
H582        H  0.40377695  0.65225466  0.93014984     0.18700
C583        C  0.40599153  0.78621204  0.51263037    -0.28700
N584        N  0.41892359  0.80976080  0.48322811     0.15500
C585        C  0.40563152  0.78568307  0.95271535    -0.28700
C586        C  0.27435140  0.66228266  0.50156517    -0.29000
N587        N  0.24898451  0.64907417  0.96906401     0.16000
H588        H  0.26315590  0.65521824  0.52807568     0.18600
C589        C  0.27393232  0.66179915  0.94169193    -0.29000
H590        H  0.26236915  0.65431457  0.91297799     0.18600
H591        H  0.41105341  0.79637814  0.92527656     0.18600
H592        H  0.40482194  0.65118633  0.54534896     0.18700
H593        H  0.41176679  0.79741744  0.54046562     0.18600
C594        C  0.36331787  0.69327314  0.69627297     0.32500
C595        C  0.36659301  0.68879995  0.76898087     0.32500
C596        C  0.38809074  0.67261393  0.71428961    -0.03700
C597        C  0.38469609  0.73422843  0.71687707    -0.04500
C598        C  0.31968265  0.66996823  0.71030018    -0.04400
C599        C  0.38982553  0.67022426  0.75197570    -0.03700
C600        C  0.38640583  0.73195945  0.75448916    -0.04500
C601        C  0.32131072  0.66764483  0.74791105    -0.04400
C602        C  0.41275275  0.65057872  0.76342688    -0.29800
N603        N  0.42492309  0.64143510  0.73349360     0.16700
C604        C  0.40997922  0.65452227  0.70334714    -0.29800
H605        H  0.41394006  0.65032152  0.67558108     0.18700
C606        C  0.40571105  0.77115980  0.76858445    -0.28700
N607        N  0.41559171  0.79673293  0.74024591     0.15500
C608        C  0.40297617  0.77470994  0.70850784    -0.28700
C609        C  0.27955235  0.64725206  0.75581173    -0.29000
N610        N  0.25308346  0.63739316  0.72377307     0.16000
H611        H  0.26920084  0.64034295  0.78262826     0.18600
C612        C  0.27706839  0.65098549  0.69577465    -0.29000
H613        H  0.26440677  0.64752396  0.66712549     0.18800
H614        H  0.40651364  0.78722000  0.68152358     0.18600
H615        H  0.41927036  0.64274765  0.79110792     0.18700
H616        H  0.41178187  0.78039909  0.79708422     0.18600
O617        O  0.10119301  0.56693413  0.98612433    -0.77700
O618        O  0.44245178  0.55589555  0.93970498    -0.77700
O619        O  0.06383882  0.59405335  0.91309326    -0.77700
O620        O  0.47164790  0.99010273  0.53103382    -0.77600
O621        O  0.00136416  0.58757036  0.89655205    -0.77800
O622        O  0.04003126  0.03532488  0.53727864    -0.77700
O623        O  0.46625480  0.54899889  0.99463048    -0.77700
O624        O  0.10136079  0.55272352  0.92854991    -0.77700
C625        C  0.12087583  0.57243981  0.95856441     1.12000
C626        C  0.45069044  0.56580952  0.97305001     1.11900
C627        C  0.04113741  0.60991341  0.90349381     1.12100
C628        C  0.50585324  0.01366102  0.55202860     1.11900
O629        O  0.50792416  0.95559948  0.00393192    -0.77700
O630        O  0.47825603  0.50855720  0.86268651    -0.77700
O631        O  0.02167424  0.47607678  0.90883528    -0.77700
O632        O  0.40058606  0.97106714  0.97536991    -0.77700
O633        O  0.41401126  0.97301005  0.91762767    -0.77700
O634        O  0.06753975  0.98558029  0.95782407    -0.77700
O635        O  0.45615709  0.94659115  0.96119058    -0.77600
O636        O  0.04828137  0.53742449  0.85967680    -0.77700
Co637      Co  0.05158788  0.01292098  0.99350940     1.51500
Co638      Co  0.46581078  0.52985792  0.91018480     1.51700
Co639      Co  0.03940840  0.53471274  0.91056781     1.51600
Co640      Co  0.46114812  0.99861744  0.97613934     1.51500
O641        O  0.01425586  0.52943446  0.95562937    -1.39600
C642        C  0.47489549  0.93212589  0.98258279     1.12000
C643        C  0.01000793  0.51958676  0.84326089     1.12000
C644        C  0.04603010  0.96587012  0.92849681     1.12000
C645        C  0.38731985  0.96076263  0.94178777     1.12000
O646        O  0.09769505  0.55607438  0.72779664    -0.77700
O647        O  0.44416635  0.54350611  0.68760254    -0.77700
O648        O  0.05554946  0.58249520  0.68423679    -0.77700
O649        O  0.46342494  0.99165949  0.78574780    -0.77600
O650        O  0.00378294  0.57348918  0.64149582    -0.77800
O651        O  0.03345062  0.02052630  0.78273768    -0.77700
O652        O  0.49003198  0.55300843  0.73659075    -0.77700
O653        O  0.11111952  0.55801939  0.67005396    -0.77700
C654        C  0.12438603  0.56832281  0.70363619     1.12000
C655        C  0.46567582  0.56321531  0.71693018     1.11900
C656        C  0.03681122  0.59696166  0.66284593     1.12100
C657        C  0.00169844  0.50949663  0.80216347     1.11900
O658        O  0.51034138  0.94151379  0.74886990    -0.77700
O659        O  0.47167571  0.49376516  0.60814567    -0.77700
O660        O  0.04545025  0.48008871  0.65079116    -0.77700
O661        O  0.41034506  0.97636152  0.71687458    -0.77700
O662        O  0.41051345  0.96215346  0.65929949    -0.77700
O663        O  0.06925278  0.97318908  0.70571586    -0.77700
O664        O  0.44786690  0.93503187  0.73233013    -0.77600
O665        O  0.04005850  0.53898713  0.61439101    -0.77700
Co666      Co  0.04589533  0.99922659  0.73523825     1.51500
Co667      Co  0.46011890  0.51616731  0.65191602     1.51700
Co668      Co  0.05055773  0.53046945  0.66928506     1.51600
Co669      Co  0.47229761  0.99437244  0.73485676     1.51500
O670        O  0.99745007  0.49965172  0.68979494    -1.39600
C671        C  0.47056806  0.91917129  0.74192839     1.12000
C672        C  0.00585329  0.51542919  0.59339595     1.12000
C673        C  0.06101422  0.96327677  0.67237037     1.12000
C674        C  0.39083031  0.95664649  0.68685941     1.12000
C675        C  0.14511188  0.84028622  0.87644294     0.32500
C676        C  0.14838774  0.83581070  0.94915074     0.32500
C677        C  0.12187886  0.85886055  0.89344937    -0.03700
C678        C  0.12529979  0.79712610  0.89093355    -0.04500
C679        C  0.19039439  0.86144152  0.89751253    -0.04400
C680        C  0.12361400  0.85646969  0.93113541    -0.03700
C681        C  0.12700995  0.79485605  0.92854563    -0.04500
C682        C  0.19202279  0.85911686  0.93512334    -0.04400
C683        C  0.10172542  0.87456070  0.94207905    -0.29800
N684        N  0.08678112  0.88764861  0.91193335     0.16700
C685        C  0.09895130  0.87850608  0.88199942    -0.29800
H686        H  0.09243362  0.88633823  0.85431864     0.18700
C687        C  0.10872999  0.75437437  0.93691391    -0.28700
N688        N  0.09611408  0.73235201  0.90517555     0.15500
C689        C  0.10599440  0.75792596  0.87683745    -0.28700
C690        C  0.23463717  0.87809954  0.94964857    -0.29000
N691        N  0.25862196  0.89169304  0.92165012     0.16000
H692        H  0.24729902  0.88156003  0.97829775     0.18600
C693        C  0.23215277  0.88183489  0.88961159    -0.29000
H694        H  0.24250400  0.88874464  0.86279516     0.18600
H695        H  0.09992298  0.74868736  0.84833754     0.18600
H696        H  0.09776507  0.87876078  0.96984550     0.18700
H697        H  0.10519251  0.74186336  0.96389860     0.18600
C698        C  0.15073522  0.82499184  0.62846666     0.32500
C699        C  0.15123752  0.82538864  0.70095940     0.32500
C700        C  0.12942939  0.84738672  0.64232583    -0.03700
C701        C  0.12767594  0.78290966  0.64490097    -0.04500
C702        C  0.19534657  0.84501944  0.65071283    -0.04400
C703        C  0.12974260  0.84732289  0.67980445    -0.03700
C704        C  0.12792550  0.78317720  0.68247885    -0.04500
C705        C  0.19561161  0.84528562  0.68823906    -0.04400
C706        C  0.11150147  0.86984841  0.68823699    -0.29800
N707        N  0.10016194  0.88361024  0.65675814     0.16700
C708        C  0.11097268  0.87039093  0.62833647    -0.29800
H709        H  0.10688151  0.87789679  0.60007023     0.18700
C710        C  0.10607474  0.74340666  0.69271267    -0.28700
N711        N  0.09278248  0.71932683  0.66220123     0.15500
C712        C  0.10571404  0.74287358  0.63279768    -0.28700
C713        C  0.23777361  0.86729046  0.70373083    -0.29000
N714        N  0.26272119  0.88001330  0.67635862     0.16000
H715        H  0.24933693  0.87477652  0.73244446     0.18600
C716        C  0.23735395  0.86680277  0.64385770    -0.29000
H717        H  0.24854928  0.87386504  0.61734697     0.18600
H718        H  0.09993847  0.73166647  0.60496343     0.18600
H719        H  0.10792829  0.87683556  0.71526959     0.18700
H720        H  0.10065307  0.73271353  0.72015193     0.18600
C721        C  0.15093011  0.82677595  0.73960761    -0.16000
C722        C  0.14865002  0.83164616  0.77056481     0.08000
C723        C  0.14533084  0.83848780  0.80607663     0.09900
C724        C  0.14387113  0.84176221  0.83754737    -0.16900
C725        C  0.15075524  0.82513315  0.58965522    -0.16000
C726        C  0.15103026  0.82686819  0.55757018     0.08000
C727        C  0.15094799  0.83020744  0.52024396     0.09900
C728        C  0.15013968  0.83315916  0.98811449    -0.16900
C729        C  0.07131606  0.67673258  0.66157585    -0.10800
C730        C  0.05424771  0.64015659  0.66168635    -0.12400
C731        C  0.34557447  0.92856365  0.68381637    -0.10800
C732        C  0.30733251  0.90576384  0.68066260    -0.12400
C733        C  0.07153969  0.93431484  0.65976462    -0.10800
C734        C  0.08374548  0.91044466  0.65552372    -0.12400
C735        C  0.06026039  0.65328553  0.90143805    -0.10800
C736        C  0.07671921  0.68986629  0.90239173    -0.12400
C737        C  0.30366621  0.91356216  0.92567625    -0.10800
C738        C  0.34231064  0.93369517  0.93125892    -0.12400
C739        C  0.05317681  0.93416960  0.91691624    -0.10800
C740        C  0.06672810  0.91130379  0.91273326    -0.12400
C741        C  0.45852851  0.59491494  0.72851203    -0.10800
C742        C  0.44497666  0.61778029  0.73269492    -0.12400
C743        C  0.45144473  0.87579920  0.74398312    -0.10800
C744        C  0.43498605  0.83921855  0.74302913    -0.12400
C745        C  0.16939502  0.59539048  0.71416469    -0.10800
C746        C  0.20803934  0.61552383  0.71974691    -0.12400
C747        C  0.44016443  0.59477171  0.98565396    -0.10800
C748        C  0.42795845  0.61864181  0.98989407    -0.12400
C749        C  0.45745884  0.88893107  0.98374480    -0.10800
C750        C  0.44039015  0.85235511  0.98385539    -0.12400
C751        C  0.16613149  0.60052291  0.96160651    -0.10800
C752        C  0.20437332  0.62332315  0.96475975    -0.12400
C753        C  0.36077663  0.70231693  0.90581574    -0.16000
C754        C  0.36305626  0.69744675  0.87485841     0.08000
C755        C  0.36637435  0.69060274  0.83934691     0.09900
C756        C  0.36783356  0.68732581  0.80787648    -0.16900
C757        C  0.36094962  0.70394928  0.55576834    -0.16000
C758        C  0.36067486  0.70221294  0.58785337     0.08000
C759        C  0.36075769  0.69887387  0.62517964     0.09900
C760        C  0.36156624  0.69592319  0.65730918    -0.16900
C761        C  0.86046856  0.20370152  0.44446402     0.32500
C762        C  0.86097005  0.20409334  0.01695690     0.32500
C763        C  0.88196293  0.18176569  0.46561708    -0.03700
C764        C  0.88378059  0.24591174  0.46294699    -0.04500
C765        C  0.81609422  0.18380354  0.45718406    -0.04400
C766        C  0.88227563  0.18169935  0.00309573    -0.03700
C767        C  0.88402982  0.24617676  0.00052493    -0.04500
C768        C  0.81635896  0.18406721  0.99471039    -0.04400
C769        C  0.90073140  0.15869391  0.01708335    -0.29800
N770        N  0.91154225  0.14547629  0.48866073     0.16700
C771        C  0.90020365  0.15924026  0.45718271    -0.29800
H772        H  0.90377710  0.15225495  0.43015034     0.18700
C773        C  0.90599164  0.28621217  0.01263049    -0.28700
N774        N  0.91892353  0.30976089  0.98322803     0.15500
C775        C  0.90563151  0.28568301  0.45271537    -0.28700
C776        C  0.77435166  0.16228270  0.00156509    -0.29000
N777        N  0.74898453  0.14907400  0.46906404     0.16000
H778        H  0.76315598  0.15521810  0.02807629     0.18600
C779        C  0.77393226  0.16179897  0.44169176    -0.29000
H780        H  0.76236945  0.15431466  0.41297875     0.18600
H781        H  0.91105344  0.29637806  0.42527650     0.18600
H782        H  0.90482188  0.15118603  0.04534918     0.18700
H783        H  0.91176677  0.29741724  0.04046485     0.18600
C784        C  0.86331777  0.19327301  0.19627299     0.32500
C785        C  0.86659301  0.18879986  0.26898085     0.32500
C786        C  0.88809071  0.17261389  0.21428962    -0.03700
C787        C  0.88469596  0.23422832  0.21687704    -0.04500
C788        C  0.81968257  0.16996805  0.21030016    -0.04400
C789        C  0.88982557  0.17022425  0.25197572    -0.03700
C790        C  0.88640573  0.23195935  0.25448916    -0.04500
C791        C  0.82131070  0.16764469  0.24791106    -0.04400
C792        C  0.91275274  0.15057866  0.26342687    -0.29800
N793        N  0.92492308  0.14143511  0.23349355     0.16700
C794        C  0.90997917  0.15452229  0.20334719    -0.29800
H795        H  0.91394003  0.15032152  0.17558072     0.18700
C796        C  0.90571080  0.27115961  0.26858432    -0.28700
N797        N  0.91559152  0.29673283  0.24024594     0.15500
C798        C  0.90297606  0.27470978  0.20850794    -0.28700
C799        C  0.77955242  0.14725206  0.25581162    -0.29000
N800        N  0.75308342  0.13739303  0.22377317     0.16000
H801        H  0.76920060  0.14034279  0.28262918     0.18600
C802        C  0.77706833  0.15098536  0.19577477    -0.29000
H803        H  0.76440644  0.14752376  0.16712514     0.18800
H804        H  0.90651371  0.28722014  0.18152313     0.18600
H805        H  0.91927034  0.14274755  0.29110792     0.18700
H806        H  0.91178180  0.28039913  0.29708490     0.18600
O807        O  0.60119288  0.06693420  0.48612432    -0.77700
O808        O  0.94245192  0.05589567  0.43970486    -0.77700
O809        O  0.56383875  0.09405335  0.41309325    -0.77700
O810        O  0.97164799  0.49010265  0.03103380    -0.77600
O811        O  0.50136407  0.08757044  0.39655219    -0.77800
O812        O  0.54003128  0.53532489  0.03727875    -0.77700
O813        O  0.96625491  0.04899893  0.49463039    -0.77700
O814        O  0.60136075  0.05272359  0.42854991    -0.77700
C815        C  0.62087577  0.07243984  0.45856445     1.12000
C816        C  0.95069053  0.06580957  0.47304992     1.11900
C817        C  0.54113733  0.10991344  0.40349392     1.12100
C818        C  0.00585332  0.51366095  0.05202859     1.11900
O819        O  0.00792407  0.45559947  0.50393198    -0.77700
O820        O  0.97825589  0.00855711  0.36268636    -0.77700
O821        O  0.52167412  0.97607667  0.40883539    -0.77700
O822        O  0.90058597  0.47106698  0.47536982    -0.77700
O823        O  0.91401122  0.47300993  0.41762761    -0.77700
O824        O  0.56753969  0.48558026  0.45782404    -0.77700
O825        O  0.95615712  0.44659117  0.46119047    -0.77600
O826        O  0.54828134  0.03742458  0.35967681    -0.77700
Co827      Co  0.55158789  0.51292096  0.49350940     1.51500
Co828      Co  0.96581080  0.02985792  0.41018469     1.51700
Co829      Co  0.53940833  0.03471271  0.41056779     1.51600
Co830      Co  0.96114797  0.49861737  0.47613922     1.51500
O831        O  0.51425579  0.02943446  0.45562937    -1.39600
C832        C  0.97489541  0.43212589  0.48258281     1.12000
C833        C  0.51000787  0.01958689  0.34326096     1.12000
C834        C  0.54603001  0.46587003  0.42849683     1.12000
C835        C  0.88731980  0.46076256  0.44178767     1.12000
O836        O  0.59769503  0.05607430  0.22779668    -0.77700
O837        O  0.94416633  0.04350604  0.18760245    -0.77700
O838        O  0.55554955  0.08249524  0.18423673    -0.77700
O839        O  0.96342488  0.49165945  0.28574776    -0.77600
O840        O  0.50378291  0.07348912  0.14149581    -0.77800
O841        O  0.53345066  0.52052645  0.28273770    -0.77700
O842        O  0.99003197  0.05300841  0.23659063    -0.77700
O843        O  0.61111952  0.05801932  0.17005398    -0.77700
C844        C  0.62438599  0.06832271  0.20363622     1.12000
C845        C  0.96567582  0.06321530  0.21693006     1.11900
C846        C  0.53681124  0.09696163  0.16284584     1.12100
C847        C  0.50169837  0.00949672  0.30216356     1.11900
O848        O  0.01034140  0.44151366  0.24886977    -0.77700
O849        O  0.97167560  0.99376512  0.10814561    -0.77700
O850        O  0.54545033  0.98008878  0.15079127    -0.77700
O851        O  0.91034506  0.47636140  0.21687447    -0.77700
O852        O  0.91051346  0.46215345  0.15929936    -0.77700
O853        O  0.56925294  0.47318921  0.20571596    -0.77700
O854        O  0.94786693  0.43503181  0.23233014    -0.77600
O855        O  0.54005858  0.03898721  0.11439111    -0.77700
Co856      Co  0.54589537  0.49922663  0.23523834     1.51500
Co857      Co  0.96011887  0.01616727  0.15191594     1.51700
Co858      Co  0.55055778  0.03046948  0.16928514     1.51600
Co859      Co  0.97229758  0.49437236  0.23485675     1.51500
O860        O  0.49745008  0.99965177  0.18979504    -1.39600
C861        C  0.97056808  0.41917121  0.24192833     1.12000
C862        C  0.50585340  0.01542924  0.09339606     1.12000
C863        C  0.56101425  0.46327683  0.17237048     1.12000
C864        C  0.89083031  0.45664652  0.18685925     1.12000
C865        C  0.64511189  0.34028619  0.37644298     0.32500
C866        C  0.64838774  0.33581077  0.44915079     0.32500
C867        C  0.62187889  0.35886055  0.39344938    -0.03700
C868        C  0.62529979  0.29712610  0.39093361    -0.04500
C869        C  0.69039439  0.36144151  0.39751261    -0.04400
C870        C  0.62361402  0.35646973  0.43113543    -0.03700
C871        C  0.62700996  0.29485611  0.42854569    -0.04500
C872        C  0.69202279  0.35911692  0.43512342    -0.04400
C873        C  0.60172534  0.37456065  0.44207904    -0.29800
N874        N  0.58678099  0.38764846  0.41193330     0.16700
C875        C  0.59895127  0.37850594  0.38199946    -0.29800
H876        H  0.59243342  0.38633805  0.35431829     0.18700
C877        C  0.60872989  0.25437445  0.43691400    -0.28700
N878        N  0.59611392  0.23235203  0.40517564     0.15500
C879        C  0.60599427  0.25792594  0.37683757    -0.28700
C880        C  0.73463724  0.37809964  0.44964881    -0.29000
N881        N  0.75862197  0.39169316  0.42165015     0.16000
H882        H  0.74729876  0.38156010  0.47829708     0.18600
C883        C  0.73215271  0.38183498  0.38961178    -0.29000
H884        H  0.74250413  0.38874496  0.36279475     0.18600
H885        H  0.59992280  0.24868724  0.34833739     0.18600
H886        H  0.59776497  0.37876075  0.46984548     0.18700
H887        H  0.60519246  0.24186355  0.46389863     0.18600
C888        C  0.65073515  0.32499184  0.12846668     0.32500
C889        C  0.65123759  0.32538874  0.20095941     0.32500
C890        C  0.62942938  0.34738678  0.14232589    -0.03700
C891        C  0.62767595  0.28290964  0.14490100    -0.04500
C892        C  0.69534655  0.34501953  0.15071276    -0.04400
C893        C  0.62974268  0.34732300  0.17980451    -0.03700
C894        C  0.62792557  0.28317726  0.18247888    -0.04500
C895        C  0.69561167  0.34528572  0.18823901    -0.04400
C896        C  0.61150150  0.36984849  0.18823710    -0.29800
N897        N  0.60016180  0.38361018  0.15675824     0.16700
C898        C  0.61097267  0.37039100  0.12833659    -0.29800
H899        H  0.60688153  0.37789695  0.10007026     0.18700
C900        C  0.60607480  0.24340672  0.19271276    -0.28700
N901        N  0.59278240  0.21932681  0.16220132     0.15500
C902        C  0.60571404  0.24287353  0.13279785    -0.28700
C903        C  0.73777369  0.36729057  0.20373072    -0.29000
N904        N  0.76272122  0.38001340  0.17635849     0.16000
H905        H  0.74933706  0.37477663  0.23244433     0.18600
C906        C  0.73735392  0.36680290  0.14385759    -0.29000
H907        H  0.74854924  0.37386515  0.11734674     0.18600
H908        H  0.59993834  0.23166613  0.10496318     0.18600
H909        H  0.60792839  0.37683563  0.21526964     0.18700
H910        H  0.60065324  0.23271368  0.22015198     0.18600
C911        C  0.65093010  0.32677601  0.23960759    -0.16000
C912        C  0.64865002  0.33164609  0.27056482     0.08000
C913        C  0.64533091  0.33848783  0.30607664     0.09900
C914        C  0.64387114  0.34176211  0.33754739    -0.16900
C915        C  0.65075503  0.32513310  0.08965523    -0.16000
C916        C  0.65103008  0.32686827  0.05757019     0.08000
C917        C  0.65094786  0.33020758  0.02024397     0.09900
C918        C  0.65013956  0.33315924  0.48811450    -0.16900
C919        C  0.57131599  0.17673254  0.16157594    -0.10800
C920        C  0.55424761  0.14015654  0.16168627    -0.12400
C921        C  0.84557448  0.42856381  0.18381621    -0.10800
C922        C  0.80733254  0.40576395  0.18066251    -0.12400
C923        C  0.57153966  0.43431484  0.15976474    -0.10800
C924        C  0.58374537  0.41044463  0.15552384    -0.12400
C925        C  0.56026030  0.15328555  0.40143817    -0.10800
C926        C  0.57671918  0.18986630  0.40239186    -0.12400
C927        C  0.80366619  0.41356230  0.42567628    -0.10800
C928        C  0.84231064  0.43369526  0.43125882    -0.12400
C929        C  0.55317675  0.43416946  0.41691632    -0.10800
C930        C  0.56672792  0.41130359  0.41273319    -0.12400
C931        C  0.95852860  0.09491504  0.22851186    -0.10800
C932        C  0.94497675  0.11778039  0.23269480    -0.12400
C933        C  0.95144474  0.37579913  0.24398317    -0.10800
C934        C  0.93498601  0.33921845  0.24302922    -0.12400
C935        C  0.66939498  0.09539030  0.21416477    -0.10800
C936        C  0.70803927  0.11552363  0.21974702    -0.12400
C937        C  0.94016447  0.09477169  0.48565390    -0.10800
C938        C  0.92795851  0.11864182  0.48989403    -0.12400
C939        C  0.95745885  0.38893110  0.48374467    -0.10800
C940        C  0.94039021  0.35235512  0.48385529    -0.12400
C941        C  0.66613149  0.10052278  0.46160663    -0.10800
C942        C  0.70437336  0.12332299  0.46475980    -0.12400
C943        C  0.86077648  0.20231687  0.40581566    -0.16000
C944        C  0.86305631  0.19744677  0.37485835     0.08000
C945        C  0.86637434  0.19060263  0.33934686     0.09900
C946        C  0.86783354  0.18732566  0.30787644    -0.16900
C947        C  0.86094966  0.20394919  0.05576838    -0.16000
C948        C  0.86067487  0.20221282  0.08785343     0.08000
C949        C  0.86075779  0.19887391  0.12517971     0.09900
C950        C  0.86156623  0.19592307  0.15730922    -0.16900
C951        C  0.86046863  0.20370156  0.94446406     0.32500
C952        C  0.86096995  0.20409331  0.51695687     0.32500
C953        C  0.88196293  0.18176567  0.96561709    -0.03700
C954        C  0.88378070  0.24591179  0.96294699    -0.04500
C955        C  0.81609428  0.18380365  0.95718405    -0.04400
C956        C  0.88227558  0.18169936  0.50309567    -0.03700
C957        C  0.88402969  0.24617672  0.50052494    -0.04500
C958        C  0.81635888  0.18406719  0.49471036    -0.04400
C959        C  0.90073136  0.15869386  0.51708346    -0.29800
N960        N  0.91154236  0.14547635  0.98866075     0.16700
C961        C  0.90020365  0.15924034  0.95718289    -0.29800
H962        H  0.90377721  0.15225479  0.93014955     0.18700
C963        C  0.90599152  0.28621205  0.51263033    -0.28700
N964        N  0.91892359  0.30976085  0.48322810     0.15500
C965        C  0.90563150  0.28568307  0.95271536    -0.28700
C966        C  0.77435155  0.16228273  0.50156509    -0.29000
N967        N  0.74898460  0.14907403  0.96906404     0.16000
H968        H  0.76315588  0.15521818  0.52807613     0.18600
C969        C  0.77393235  0.16179921  0.94169193    -0.29000
H970        H  0.76236915  0.15431477  0.91297793     0.18600
H971        H  0.91105341  0.29637818  0.92527634     0.18600
H972        H  0.90482171  0.15118628  0.54534833     0.18700
H973        H  0.91176684  0.29741756  0.54046586     0.18600
C974        C  0.86331777  0.19327299  0.69627296     0.32500
C975        C  0.86659293  0.18879982  0.76898086     0.32500
C976        C  0.88809064  0.17261378  0.71428960    -0.03700
C977        C  0.88469599  0.23422830  0.71687702    -0.04500
C978        C  0.81968255  0.16996809  0.71030016    -0.04400
C979        C  0.88982543  0.17022411  0.75197569    -0.03700
C980        C  0.88640574  0.23195933  0.75448914    -0.04500
C981        C  0.82131066  0.16764474  0.74791103    -0.04400
C982        C  0.91275268  0.15057859  0.76342692    -0.29800
N983        N  0.92492301  0.14143497  0.73349359     0.16700
C984        C  0.90997912  0.15452213  0.70334714    -0.29800
H985        H  0.91394000  0.15032140  0.67558108     0.18700
C986        C  0.90571092  0.27115962  0.76858424    -0.28700
N987        N  0.91559166  0.29673283  0.74024586     0.15500
C988        C  0.90297606  0.27470975  0.70850788    -0.28700
C989        C  0.77955232  0.14725207  0.75581177    -0.29000
N990        N  0.75308339  0.13739307  0.72377313     0.16000
H991        H  0.76920088  0.14034304  0.78262825     0.18600
C992        C  0.77706828  0.15098533  0.69577467    -0.29000
H993        H  0.76440660  0.14752375  0.66712548     0.18800
H994        H  0.90651364  0.28722010  0.68152301     0.18600
H995        H  0.91927035  0.14274765  0.79110776     0.18700
H996        H  0.91178197  0.28039922  0.79708494     0.18600
O997        O  0.60119297  0.06693420  0.98612442    -0.77700
O998        O  0.94245204  0.05589575  0.93970485    -0.77700
O999        O  0.56383885  0.09405341  0.91309342    -0.77700
O1000       O  0.97164783  0.49010261  0.53103379    -0.77600
O1001       O  0.50136425  0.08757054  0.89655223    -0.77800
O1002       O  0.54003128  0.53532494  0.53727866    -0.77700
O1003       O  0.96625468  0.04899878  0.99463041    -0.77700
O1004       O  0.60136082  0.05272362  0.92855002    -0.77700
C1005       C  0.62087583  0.07243990  0.95856453     1.12000
C1006       C  0.95069048  0.06580954  0.97304991     1.11900
C1007       C  0.54113750  0.10991354  0.90349397     1.12100
C1008       C  0.00585323  0.51366091  0.55202854     1.11900
O1009       O  0.00792417  0.45559949  0.00393193    -0.77700
O1010       O  0.97825596  0.00855710  0.86268647    -0.77700
O1011       O  0.52167421  0.97607673  0.90883530    -0.77700
O1012       O  0.90058610  0.47106699  0.97536980    -0.77700
O1013       O  0.91401134  0.47300996  0.91762759    -0.77700
O1014       O  0.56753978  0.48558032  0.95782402    -0.77700
O1015       O  0.95615711  0.44659115  0.96119051    -0.77600
O1016       O  0.54828141  0.03742458  0.85967690    -0.77700
Co1017     Co  0.55158788  0.51292097  0.99350941     1.51500
Co1018     Co  0.96581082  0.02985796  0.91018472     1.51700
Co1019     Co  0.53940838  0.03471274  0.91056788     1.51600
Co1020     Co  0.96114809  0.49861740  0.97613920     1.51500
O1021       O  0.51425584  0.02943449  0.95562941    -1.39600
C1022       C  0.97489548  0.43212591  0.98258279     1.12000
C1023       C  0.51000797  0.01958691  0.84326096     1.12000
C1024       C  0.54603004  0.46587007  0.92849684     1.12000
C1025       C  0.88731989  0.46076263  0.94178764     1.12000
O1026       O  0.59769499  0.05607433  0.72779664    -0.77700
O1027       O  0.94416645  0.04350608  0.68760257    -0.77700
O1028       O  0.55554950  0.08249522  0.68423684    -0.77700
O1029       O  0.96342489  0.49165948  0.78574774    -0.77600
O1030       O  0.50378291  0.07348919  0.64149593    -0.77800
O1031       O  0.53345057  0.52052647  0.78273764    -0.77700
O1032       O  0.99003204  0.05300842  0.73659079    -0.77700
O1033       O  0.61111953  0.05801935  0.67005400    -0.77700
C1034       C  0.62438600  0.06832271  0.70363624     1.12000
C1035       C  0.96567601  0.06321539  0.71693015     1.11900
C1036       C  0.53681123  0.09696166  0.66284600     1.12100
C1037       C  0.50169851  0.00949675  0.80216354     1.11900
O1038       O  0.01034147  0.44151368  0.74886968    -0.77700
O1039       O  0.97167565  0.99376515  0.60814562    -0.77700
O1040       O  0.54545019  0.98008867  0.65079116    -0.77700
O1041       O  0.91034510  0.47636142  0.71687461    -0.77700
O1042       O  0.91051341  0.46215345  0.65929947    -0.77700
O1043       O  0.56925290  0.47318921  0.70571593    -0.77700
O1044       O  0.94786696  0.43503175  0.73233018    -0.77600
O1045       O  0.54005852  0.03898727  0.61439106    -0.77700
Co1046     Co  0.54589533  0.49922668  0.73523829     1.51500
Co1047     Co  0.96011887  0.01616728  0.65191599     1.51700
Co1048     Co  0.55055772  0.03046947  0.66928507     1.51600
Co1049     Co  0.97229767  0.49437235  0.73485677     1.51500
O1050       O  0.49745006  0.99965177  0.68979498    -1.39600
C1051       C  0.97056816  0.41917118  0.74192833     1.12000
C1052       C  0.50585334  0.01542928  0.59339604     1.12000
C1053       C  0.56101424  0.46327682  0.67237046     1.12000
C1054       C  0.89083030  0.45664647  0.68685941     1.12000
C1055       C  0.64511183  0.34028621  0.87644295     0.32500
C1056       C  0.64838775  0.33581082  0.94915076     0.32500
C1057       C  0.62187885  0.35886058  0.89344935    -0.03700
C1058       C  0.62529977  0.29712614  0.89093360    -0.04500
C1059       C  0.69039434  0.36144155  0.89751255    -0.04400
C1060       C  0.62361405  0.35646978  0.93113540    -0.03700
C1061       C  0.62700998  0.29485616  0.92854569    -0.04500
C1062       C  0.69202279  0.35911696  0.93512337    -0.04400
C1063       C  0.60172536  0.37456064  0.94207903    -0.29800
N1064       N  0.58678098  0.38764849  0.91193334     0.16700
C1065       C  0.59895119  0.37850597  0.88199944    -0.29800
H1066       H  0.59243334  0.38633806  0.85431843     0.18700
C1067       C  0.60873005  0.25437449  0.93691401    -0.28700
N1068       N  0.59611413  0.23235213  0.90517561     0.15500
C1069       C  0.60599442  0.25792604  0.87683755    -0.28700
C1070       C  0.73463718  0.37809968  0.94964857    -0.29000
N1071       N  0.75862195  0.39169320  0.92165008     0.16000
H1072       H  0.74729907  0.38156019  0.97829774     0.18600
C1073       C  0.73215267  0.38183503  0.88961162    -0.29000
H1074       H  0.74250388  0.38874484  0.86279495     0.18600
H1075       H  0.59992294  0.24868734  0.84833738     0.18600
H1076       H  0.59776499  0.37876071  0.96984558     0.18700
H1077       H  0.60519261  0.24186358  0.96389853     0.18600
C1078       C  0.65073517  0.32499189  0.62846665     0.32500
C1079       C  0.65123759  0.32538871  0.70095941     0.32500
C1080       C  0.62942944  0.34738683  0.64232591    -0.03700
C1081       C  0.62767593  0.28290969  0.64490096    -0.04500
C1082       C  0.69534658  0.34501955  0.65071280    -0.04400
C1083       C  0.62974272  0.34732300  0.67980451    -0.03700
C1084       C  0.62792558  0.28317726  0.68247883    -0.04500
C1085       C  0.69561165  0.34528574  0.68823903    -0.04400
C1086       C  0.61150155  0.36984848  0.68823716    -0.29800
N1087       N  0.60016194  0.38361026  0.65675834     0.16700
C1088       C  0.61097267  0.37039108  0.62833649    -0.29800
H1089       H  0.60688157  0.37789678  0.60007102     0.18700
C1090       C  0.60607494  0.24340674  0.69271262    -0.28700
N1091       N  0.59278251  0.21932684  0.66220127     0.15500
C1092       C  0.60571400  0.24287355  0.63279765    -0.28700
C1093       C  0.73777369  0.36729060  0.70373095    -0.29000
N1094       N  0.76272122  0.38001328  0.67635860     0.16000
H1095       H  0.74933673  0.37477649  0.73244383     0.18600
C1096       C  0.73735399  0.36680286  0.64385766    -0.29000
H1097       H  0.74854927  0.37386506  0.61734711     0.18600
H1098       H  0.59993839  0.23166645  0.60496362     0.18600
H1099       H  0.60792843  0.37683555  0.71526964     0.18700
H1100       H  0.60065331  0.23271352  0.72015228     0.18600
C1101       C  0.65093010  0.32677588  0.73960762    -0.16000
C1102       C  0.64864996  0.33164607  0.77056481     0.08000
C1103       C  0.64533085  0.33848785  0.80607662     0.09900
C1104       C  0.64387106  0.34176214  0.83754736    -0.16900
C1105       C  0.65075505  0.32513314  0.58965521    -0.16000
C1106       C  0.65103021  0.32686824  0.55757018     0.08000
C1107       C  0.65094796  0.33020740  0.52024396     0.09900
C1108       C  0.65013955  0.33315934  0.98811450    -0.16900
C1109       C  0.57131603  0.17673257  0.66157587    -0.10800
C1110       C  0.55424770  0.14015658  0.66168637    -0.12400
C1111       C  0.84557445  0.42856368  0.68381635    -0.10800
C1112       C  0.80733250  0.40576380  0.68066259    -0.12400
C1113       C  0.57153967  0.43431484  0.65976473    -0.10800
C1114       C  0.58374550  0.41044470  0.65552393    -0.12400
C1115       C  0.56026049  0.15328567  0.90143823    -0.10800
C1116       C  0.57671928  0.18986643  0.90239183    -0.12400
C1117       C  0.80366621  0.41356231  0.92567616    -0.10800
C1118       C  0.84231067  0.43369533  0.93125876    -0.12400
C1119       C  0.55317672  0.43416950  0.91691628    -0.10800
C1120       C  0.56672799  0.41130366  0.91273327    -0.12400
C1121       C  0.95852877  0.09491509  0.72851197    -0.10800
C1122       C  0.94497679  0.11778035  0.73269492    -0.12400
C1123       C  0.95144493  0.37579912  0.74398311    -0.10800
C1124       C  0.93498620  0.33921846  0.74302911    -0.12400
C1125       C  0.66939496  0.09539032  0.71416487    -0.10800
C1126       C  0.70803927  0.11552369  0.71974710    -0.12400
C1127       C  0.94016440  0.09477165  0.98565381    -0.10800
C1128       C  0.92795850  0.11864182  0.98989398    -0.12400
C1129       C  0.95745882  0.38893112  0.98374478    -0.10800
C1130       C  0.94039015  0.35235516  0.98385536    -0.12400
C1131       C  0.66613155  0.10052290  0.96160669    -0.10800
C1132       C  0.70437339  0.12332306  0.96475982    -0.12400
C1133       C  0.86077658  0.20231689  0.90581571    -0.16000
C1134       C  0.86305633  0.19744681  0.87485839     0.08000
C1135       C  0.86637447  0.19060266  0.83934694     0.09900
C1136       C  0.86783352  0.18732567  0.80787648    -0.16900
C1137       C  0.86094958  0.20394921  0.55576833    -0.16000
C1138       C  0.86067479  0.20221285  0.58785337     0.08000
C1139       C  0.86075770  0.19887393  0.62517965     0.09900
C1140       C  0.86156618  0.19592310  0.65730917    -0.16900
C1141       C  0.86046876  0.70370165  0.44446401     0.32500
C1142       C  0.86097013  0.70409345  0.01695686     0.32500
C1143       C  0.88196302  0.68176574  0.46561706    -0.03700
C1144       C  0.88378087  0.74591187  0.46294696    -0.04500
C1145       C  0.81609441  0.68380378  0.45718408    -0.04400
C1146       C  0.88227574  0.68169947  0.00309572    -0.03700
C1147       C  0.88402988  0.74617685  0.00052489    -0.04500
C1148       C  0.81635906  0.68406734  0.99471036    -0.04400
C1149       C  0.90073153  0.65869404  0.01708335    -0.29800
N1150       N  0.91154231  0.64547632  0.48866076     0.16700
C1151       C  0.90020362  0.65924021  0.45718269    -0.29800
H1152       H  0.90377693  0.65225478  0.43015035     0.18700
C1153       C  0.90599168  0.78621222  0.01263044    -0.28700
N1154       N  0.91892368  0.80976098  0.98322806     0.15500
C1155       C  0.90563164  0.78568316  0.45271515    -0.28700
C1156       C  0.77435170  0.66228288  0.00156509    -0.29000
N1157       N  0.74898468  0.64907435  0.46906396     0.16000
H1158       H  0.76315613  0.65521836  0.02807591     0.18600
C1159       C  0.77393246  0.66179935  0.44169178    -0.29000
H1160       H  0.76236965  0.65431504  0.41297859     0.18600
H1161       H  0.91105339  0.79637795  0.42527686     0.18600
H1162       H  0.90482199  0.65118618  0.04534917     0.18700
H1163       H  0.91176685  0.79741734  0.04046508     0.18600
C1164       C  0.86331793  0.69327311  0.19627287     0.32500
C1165       C  0.86659310  0.68879999  0.26898076     0.32500
C1166       C  0.88809080  0.67261392  0.21428954    -0.03700
C1167       C  0.88469616  0.73422843  0.21687692    -0.04500
C1168       C  0.81968272  0.66996821  0.21030007    -0.04400
C1169       C  0.88982559  0.67022427  0.25197566    -0.03700
C1170       C  0.88640592  0.73195947  0.25448902    -0.04500
C1171       C  0.82131082  0.66764487  0.24791095    -0.04400
C1172       C  0.91275271  0.65057874  0.26342674    -0.29800
N1173       N  0.92492303  0.64143500  0.23349365     0.16700
C1174       C  0.90997926  0.65452223  0.20334713    -0.29800
H1175       H  0.91394016  0.65032146  0.17558106     0.18700
C1176       C  0.90571113  0.77115982  0.26858427    -0.28700
N1177       N  0.91559179  0.79673296  0.24024573     0.15500
C1178       C  0.90297624  0.77470993  0.20850767    -0.28700
C1179       C  0.77955253  0.64725221  0.25581156    -0.29000
N1180       N  0.75308355  0.63739318  0.22377309     0.16000
H1181       H  0.76920079  0.64034298  0.28262886     0.18600
C1182       C  0.77706842  0.65098544  0.19577455    -0.29000
H1183       H  0.76440686  0.64752388  0.16712567     0.18800
H1184       H  0.90651369  0.78721998  0.18152340     0.18600
H1185       H  0.91927052  0.64274744  0.29110871     0.18700
H1186       H  0.91178196  0.78039914  0.29708409     0.18600
O1187       O  0.60119311  0.56693429  0.48612428    -0.77700
O1188       O  0.94245177  0.55589555  0.43970496    -0.77700
O1189       O  0.56383895  0.59405352  0.41309329    -0.77700
O1190       O  0.97164799  0.99010272  0.03103369    -0.77600
O1191       O  0.50136434  0.58757063  0.39655215    -0.77800
O1192       O  0.54003121  0.03532475  0.03727881    -0.77700
O1193       O  0.96625456  0.54899871  0.49463052    -0.77700
O1194       O  0.60136087  0.55272374  0.42854985    -0.77700
C1195       C  0.62087593  0.57244000  0.45856436     1.12000
C1196       C  0.95069031  0.56580941  0.47305001     1.11900
C1197       C  0.54113759  0.60991365  0.40349393     1.12100
C1198       C  0.00585332  0.01366102  0.05202850     1.11900
O1199       O  0.00792423  0.95559962  0.50393181    -0.77700
O1200       O  0.97825580  0.50855695  0.36268657    -0.77700
O1201       O  0.52167438  0.47607681  0.40883521    -0.77700
O1202       O  0.90058616  0.97106714  0.47536974    -0.77700
O1203       O  0.91401147  0.97301000  0.41762755    -0.77700
O1204       O  0.56753960  0.98558020  0.45782413    -0.77700
O1205       O  0.95615722  0.94659126  0.46119039    -0.77600
O1206       O  0.54828158  0.53742469  0.35967677    -0.77700
Co1207     Co  0.55158775  0.01292083  0.49350951     1.51500
Co1208     Co  0.96581059  0.52985778  0.41018482     1.51700
Co1209     Co  0.53940848  0.53471283  0.41056773     1.51600
Co1210     Co  0.96114822  0.99861749  0.47613918     1.51500
O1211       O  0.51425601  0.52943461  0.45562931    -1.39600
C1212       C  0.97489561  0.93212602  0.48258264     1.12000
C1213       C  0.51000813  0.51958702  0.34326087     1.12000
C1214       C  0.54602992  0.96587001  0.42849690     1.12000
C1215       C  0.88732000  0.96076267  0.44178759     1.12000
O1216       O  0.59769514  0.55607446  0.22779652    -0.77700
O1217       O  0.94416626  0.54350587  0.18760261    -0.77700
O1218       O  0.55554964  0.58249534  0.18423673    -0.77700
O1219       O  0.96342502  0.99165961  0.28574762    -0.77600
O1220       O  0.50378304  0.57348929  0.14149583    -0.77800
O1221       O  0.53345039  0.02052625  0.28273778    -0.77700
O1222       O  0.99003179  0.55300826  0.23659086    -0.77700
O1223       O  0.61111966  0.55801945  0.17005385    -0.77700
C1224       C  0.62438614  0.56832281  0.20363610     1.12000
C1225       C  0.96567575  0.56321520  0.21693018     1.11900
C1226       C  0.53681139  0.59696177  0.16284585     1.12100
C1227       C  0.50169864  0.50949684  0.30216348     1.11900
O1228       O  0.01034153  0.94151377  0.24886969    -0.77700
O1229       O  0.97167554  0.49376501  0.10814569    -0.77700
O1230       O  0.54545037  0.48008878  0.15079117    -0.77700
O1231       O  0.91034518  0.97636157  0.21687444    -0.77700
O1232       O  0.91051358  0.96215361  0.15929931    -0.77700
O1233       O  0.56925278  0.97318907  0.20571605    -0.77700
O1234       O  0.94786705  0.93503190  0.23233000    -0.77600
O1235       O  0.54005866  0.53898734  0.11439101    -0.77700
Co1236     Co  0.54589515  0.99922649  0.23523839     1.51500
Co1237     Co  0.96011881  0.51616711  0.15191608     1.51700
Co1238     Co  0.55055789  0.53046957  0.16928505     1.51600
Co1239     Co  0.97229771  0.99437247  0.23485661     1.51500
O1240       O  0.49745020  0.49965182  0.18979495    -1.39600
C1241       C  0.97056820  0.91917130  0.24192823     1.12000
C1242       C  0.50585347  0.51542939  0.09339598     1.12000
C1243       C  0.56101410  0.96327673  0.17237056     1.12000
C1244       C  0.89083044  0.95664666  0.18685922     1.12000
C1245       C  0.64511195  0.84028631  0.37644294     0.32500
C1246       C  0.64838788  0.83581091  0.44915072     0.32500
C1247       C  0.62187890  0.85886060  0.39344936    -0.03700
C1248       C  0.62529988  0.79712623  0.39093354    -0.04500
C1249       C  0.69039448  0.86144167  0.39751251    -0.04400
C1250       C  0.62361410  0.85646982  0.43113541    -0.03700
C1251       C  0.62701014  0.79485627  0.42854564    -0.04500
C1252       C  0.69202293  0.85911708  0.43512335    -0.04400
C1253       C  0.60172544  0.87456076  0.44207905    -0.29800
N1254       N  0.58678111  0.88764860  0.41193330     0.16700
C1255       C  0.59895134  0.87850604  0.38199946    -0.29800
H1256       H  0.59243357  0.88633820  0.35431832     0.18700
C1257       C  0.60873024  0.75437465  0.43691398    -0.28700
N1258       N  0.59611425  0.73235224  0.40517560     0.15500
C1259       C  0.60599443  0.75792613  0.37683762    -0.28700
C1260       C  0.73463730  0.87809977  0.44964851    -0.29000
N1261       N  0.75862209  0.89169330  0.42165006     0.16000
H1262       H  0.74729932  0.88156030  0.47829796     0.18600
C1263       C  0.73215279  0.88183513  0.38961167    -0.29000
H1264       H  0.74250422  0.88874510  0.36279459     0.18600
H1265       H  0.59992269  0.74868715  0.34833680     0.18600
H1266       H  0.59776506  0.87876083  0.46984543     0.18700
H1267       H  0.60519283  0.74186373  0.46389864     0.18600
C1268       C  0.65073528  0.82499203  0.12846665     0.32500
C1269       C  0.65123773  0.82538885  0.20095940     0.32500
C1270       C  0.62942950  0.84738695  0.14232590    -0.03700
C1271       C  0.62767606  0.78290984  0.14490096    -0.04500
C1272       C  0.69534669  0.84501969  0.15071275    -0.04400
C1273       C  0.62974280  0.84732314  0.17980453    -0.03700
C1274       C  0.62792572  0.78317741  0.18247883    -0.04500
C1275       C  0.69561181  0.84528588  0.18823899    -0.04400
C1276       C  0.61150160  0.86984863  0.18823711    -0.29800
N1277       N  0.60016187  0.88361031  0.15675825     0.16700
C1278       C  0.61097276  0.87039115  0.12833660    -0.29800
H1279       H  0.60688160  0.87789708  0.10007026     0.18700
C1280       C  0.60607512  0.74340686  0.19271268    -0.28700
N1281       N  0.59278275  0.71932698  0.16220130     0.15500
C1282       C  0.60571416  0.74287367  0.13279763    -0.28700
C1283       C  0.73777384  0.86729074  0.20373070    -0.29000
N1284       N  0.76272138  0.88001356  0.17635847     0.16000
H1285       H  0.74933721  0.87477681  0.23244431     0.18600
C1286       C  0.73735409  0.86680301  0.14385755    -0.29000
H1287       H  0.74854935  0.87386524  0.11734688     0.18600
H1288       H  0.59993861  0.73166668  0.10496388     0.18600
H1289       H  0.60792845  0.87683575  0.21526964     0.18700
H1290       H  0.60065359  0.73271378  0.22015202     0.18600
C1291       C  0.65093026  0.82677599  0.23960761    -0.16000
C1292       C  0.64865014  0.83164617  0.27056481     0.08000
C1293       C  0.64533100  0.83848798  0.30607660     0.09900
C1294       C  0.64387121  0.84176226  0.33754734    -0.16900
C1295       C  0.65075518  0.82513328  0.08965521    -0.16000
C1296       C  0.65103038  0.82686836  0.05757018     0.08000
C1297       C  0.65094814  0.83020752  0.02024394     0.09900
C1298       C  0.65013970  0.83315938  0.48811445    -0.16900
C1299       C  0.57131638  0.67673270  0.16157590    -0.10800
C1300       C  0.55424792  0.64015670  0.16168625    -0.12400
C1301       C  0.84557464  0.92856389  0.18381617    -0.10800
C1302       C  0.80733269  0.90576410  0.18066242    -0.12400
C1303       C  0.57153950  0.93431479  0.15976472    -0.10800
C1304       C  0.58374530  0.91044463  0.15552383    -0.12400
C1305       C  0.56026060  0.65328578  0.40143817    -0.10800
C1306       C  0.57671944  0.68986654  0.40239185    -0.12400
C1307       C  0.80366634  0.91356240  0.42567611    -0.10800
C1308       C  0.84231080  0.93369536  0.43125870    -0.12400
C1309       C  0.55317679  0.93416956  0.41691628    -0.10800
C1310       C  0.56672802  0.91130374  0.41273319    -0.12400
C1311       C  0.95852849  0.59491491  0.22851194    -0.10800
C1312       C  0.94497658  0.61778019  0.23269494    -0.12400
C1313       C  0.95144484  0.87579923  0.24398296    -0.10800
C1314       C  0.93498612  0.83921856  0.24302896    -0.12400
C1315       C  0.66939511  0.59539043  0.21416470    -0.10800
C1316       C  0.70803942  0.61552380  0.21974698    -0.12400
C1317       C  0.94016431  0.59477158  0.48565391    -0.10800
C1318       C  0.92795844  0.61864177  0.48989404    -0.12400
C1319       C  0.95745897  0.88893123  0.48374461    -0.10800
C1320       C  0.94039028  0.85235525  0.48385521    -0.12400
C1321       C  0.66613165  0.60052296  0.46160649    -0.10800
C1322       C  0.70437350  0.62332321  0.46475966    -0.12400
C1323       C  0.86077674  0.70231700  0.40581567    -0.16000
C1324       C  0.86305646  0.69744691  0.37485833     0.08000
C1325       C  0.86637443  0.69060277  0.33934681     0.09900
C1326       C  0.86783361  0.68732580  0.30787637    -0.16900
C1327       C  0.86094976  0.70394934  0.05576831    -0.16000
C1328       C  0.86067496  0.70221297  0.08785334     0.08000
C1329       C  0.86075785  0.69887403  0.12517960     0.09900
C1330       C  0.86156631  0.69592318  0.15730911    -0.16900
C1331       C  0.86046873  0.70370164  0.94446404     0.32500
C1332       C  0.86097018  0.70409346  0.51695686     0.32500
C1333       C  0.88196299  0.68176572  0.96561708    -0.03700
C1334       C  0.88378081  0.74591188  0.96294696    -0.04500
C1335       C  0.81609438  0.68380376  0.95718403    -0.04400
C1336       C  0.88227573  0.68169947  0.50309567    -0.03700
C1337       C  0.88403001  0.74617687  0.50052490    -0.04500
C1338       C  0.81635907  0.68406738  0.49471038    -0.04400
C1339       C  0.90073148  0.65869400  0.51708335    -0.29800
N1340       N  0.91154242  0.64547640  0.98866076     0.16700
C1341       C  0.90020362  0.65924028  0.95718289    -0.29800
H1342       H  0.90377702  0.65225460  0.93014956     0.18700
C1343       C  0.90599168  0.78621223  0.51263023    -0.28700
N1344       N  0.91892364  0.80976098  0.48322798     0.15500
C1345       C  0.90563174  0.78568317  0.95271536    -0.28700
C1346       C  0.77435165  0.66228290  0.50156516    -0.29000
N1347       N  0.74898469  0.64907432  0.96906394     0.16000
H1348       H  0.76315620  0.65521840  0.52807560     0.18600
C1349       C  0.77393248  0.66179940  0.94169190    -0.29000
H1350       H  0.76236925  0.65431488  0.91297771     0.18600
H1351       H  0.91105376  0.79637827  0.92527644     0.18600
H1352       H  0.90482195  0.65118628  0.54534892     0.18700
H1353       H  0.91176690  0.79741771  0.54046558     0.18600
C1354       C  0.86331802  0.69327313  0.69627297     0.32500
C1355       C  0.86659311  0.68879995  0.76898084     0.32500
C1356       C  0.88809088  0.67261394  0.71428964    -0.03700
C1357       C  0.88469624  0.73422844  0.71687701    -0.04500
C1358       C  0.81968275  0.66996823  0.71030012    -0.04400
C1359       C  0.88982564  0.67022426  0.75197573    -0.03700
C1360       C  0.88640596  0.73195947  0.75448912    -0.04500
C1361       C  0.82131082  0.66764486  0.74791100    -0.04400
C1362       C  0.91275288  0.65057874  0.76342696    -0.29800
N1363       N  0.92492318  0.64143509  0.73349367     0.16700
C1364       C  0.90997933  0.65452226  0.70334722    -0.29800
H1365       H  0.91394017  0.65032146  0.67558108     0.18700
C1366       C  0.90571105  0.77115976  0.76858423    -0.28700
N1367       N  0.91559179  0.79673297  0.74024586     0.15500
C1368       C  0.90297633  0.77470990  0.70850788    -0.28700
C1369       C  0.77955248  0.64725222  0.75581175    -0.29000
N1370       N  0.75308354  0.63739322  0.72377305     0.16000
H1371       H  0.76920102  0.64034320  0.78262818     0.18600
C1372       C  0.77706853  0.65098553  0.69577477    -0.29000
H1373       H  0.76440654  0.64752386  0.66712487     0.18800
H1374       H  0.90651397  0.78722024  0.68152304     0.18600
H1375       H  0.91927050  0.64274769  0.79110800     0.18700
H1376       H  0.91178198  0.78039934  0.79708492     0.18600
O1377       O  0.60119304  0.56693434  0.98612423    -0.77700
O1378       O  0.94245180  0.55589552  0.93970493    -0.77700
O1379       O  0.56383897  0.59405352  0.91309321    -0.77700
O1380       O  0.97164809  0.99010269  0.53103375    -0.77600
O1381       O  0.50136424  0.58757054  0.89655226    -0.77800
O1382       O  0.54003113  0.03532479  0.53727877    -0.77700
O1383       O  0.96625477  0.54899881  0.99463045    -0.77700
O1384       O  0.60136099  0.55272375  0.92854985    -0.77700
C1385       C  0.62087595  0.57244004  0.95856436     1.12000
C1386       C  0.95069041  0.56580944  0.97304996     1.11900
C1387       C  0.54113752  0.60991358  0.90349386     1.12100
C1388       C  0.00585345  0.01366107  0.55202851     1.11900
O1389       O  0.00792425  0.95559964  0.00393192    -0.77700
O1390       O  0.97825580  0.50855697  0.86268649    -0.77700
O1391       O  0.52167435  0.47607683  0.90883531    -0.77700
O1392       O  0.90058621  0.97106709  0.97536970    -0.77700
O1393       O  0.91401147  0.97301006  0.91762750    -0.77700
O1394       O  0.56753960  0.98558022  0.95782406    -0.77700
O1395       O  0.95615730  0.94659119  0.96119036    -0.77600
O1396       O  0.54828160  0.53742474  0.85967677    -0.77700
Co1397     Co  0.55158778  0.01292084  0.99350947     1.51500
Co1398     Co  0.96581072  0.52985781  0.91018479     1.51700
Co1399     Co  0.53940860  0.53471287  0.91056779     1.51600
Co1400     Co  0.96114818  0.99861746  0.97613910     1.51500
O1401       O  0.51425598  0.52943462  0.95562932    -1.39600
C1402       C  0.97489565  0.93212599  0.98258275     1.12000
C1403       C  0.51000813  0.51958705  0.84326088     1.12000
C1404       C  0.54602999  0.96587006  0.92849680     1.12000
C1405       C  0.88732005  0.96076262  0.94178757     1.12000
O1406       O  0.59769513  0.55607449  0.72779656    -0.77700
O1407       O  0.94416622  0.54350590  0.68760258    -0.77700
O1408       O  0.55554977  0.58249536  0.68423658    -0.77700
O1409       O  0.96342503  0.99165964  0.78574771    -0.77600
O1410       O  0.50378303  0.57348934  0.64149578    -0.77800
O1411       O  0.53345053  0.02052632  0.78273776    -0.77700
O1412       O  0.99003189  0.55300829  0.73659075    -0.77700
O1413       O  0.61111967  0.55801950  0.67005386    -0.77700
C1414       C  0.62438613  0.56832287  0.70363611     1.12000
C1415       C  0.96567575  0.56321518  0.71693016     1.11900
C1416       C  0.53681146  0.59696180  0.66284578     1.12100
C1417       C  0.50169859  0.50949689  0.80216346     1.11900
O1418       O  0.01034164  0.94151382  0.74886972    -0.77700
O1419       O  0.97167544  0.49376504  0.60814562    -0.77700
O1420       O  0.54545047  0.48008883  0.65079112    -0.77700
O1421       O  0.91034522  0.97636157  0.71687442    -0.77700
O1422       O  0.91051345  0.96215359  0.65929926    -0.77700
O1423       O  0.56925281  0.97318908  0.70571594    -0.77700
O1424       O  0.94786714  0.93503190  0.73233014    -0.77600
O1425       O  0.54005869  0.53898742  0.61439101    -0.77700
Co1426     Co  0.54589522  0.99922651  0.73523835     1.51500
Co1427     Co  0.96011874  0.51616714  0.65191604     1.51700
Co1428     Co  0.55055796  0.53046960  0.66928501     1.51600
Co1429     Co  0.97229778  0.99437249  0.73485673     1.51500
O1430       O  0.49745024  0.49965193  0.68979492    -1.39600
C1431       C  0.97056833  0.91917133  0.74192834     1.12000
C1432       C  0.50585349  0.51542940  0.59339596     1.12000
C1433       C  0.56101415  0.96327674  0.67237044     1.12000
C1434       C  0.89083039  0.95664661  0.68685923     1.12000
C1435       C  0.64511195  0.84028633  0.87644293     0.32500
C1436       C  0.64838789  0.83581094  0.94915072     0.32500
C1437       C  0.62187890  0.85886064  0.89344934    -0.03700
C1438       C  0.62529987  0.79712625  0.89093355    -0.04500
C1439       C  0.69039451  0.86144166  0.89751250    -0.04400
C1440       C  0.62361413  0.85646988  0.93113539    -0.03700
C1441       C  0.62701007  0.79485627  0.92854564    -0.04500
C1442       C  0.69202293  0.85911711  0.93512332    -0.04400
C1443       C  0.60172545  0.87456076  0.94207904    -0.29800
N1444       N  0.58678110  0.88764862  0.91193334     0.16700
C1445       C  0.59895127  0.87850607  0.88199943    -0.29800
H1446       H  0.59243349  0.88633821  0.85431847     0.18700
C1447       C  0.60873014  0.75437460  0.93691392    -0.28700
N1448       N  0.59611418  0.73235220  0.90517556     0.15500
C1449       C  0.60599449  0.75792613  0.87683749    -0.28700
C1450       C  0.73463731  0.87809985  0.94964856    -0.29000
N1451       N  0.75862213  0.89169337  0.92165009     0.16000
H1452       H  0.74729916  0.88156036  0.97829775     0.18600
C1453       C  0.73215286  0.88183512  0.88961169    -0.29000
H1454       H  0.74250432  0.88874506  0.86279464     0.18600
H1455       H  0.59992303  0.74868747  0.84833734     0.18600
H1456       H  0.59776506  0.87876080  0.96984553     0.18700
H1457       H  0.60519274  0.74186363  0.96389863     0.18600
C1458       C  0.65073528  0.82499204  0.62846664     0.32500
C1459       C  0.65123773  0.82538886  0.70095941     0.32500
C1460       C  0.62942954  0.84738697  0.64232591    -0.03700
C1461       C  0.62767607  0.78290984  0.64490096    -0.04500
C1462       C  0.69534670  0.84501971  0.65071277    -0.04400
C1463       C  0.62974283  0.84732315  0.67980452    -0.03700
C1464       C  0.62792568  0.78317741  0.68247883    -0.04500
C1465       C  0.69561181  0.84528589  0.68823903    -0.04400
C1466       C  0.61150165  0.86984861  0.68823717    -0.29800
N1467       N  0.60016201  0.88361035  0.65675834     0.16700
C1468       C  0.61097277  0.87039121  0.62833649    -0.29800
H1469       H  0.60688164  0.87789690  0.60007102     0.18700
C1470       C  0.60607505  0.74340687  0.69271262    -0.28700
N1471       N  0.59278269  0.71932698  0.66220127     0.15500
C1472       C  0.60571425  0.74287369  0.63279764    -0.28700
C1473       C  0.73777390  0.86729074  0.70373093    -0.29000
N1474       N  0.76272135  0.88001356  0.67635847     0.16000
H1475       H  0.74933697  0.87477651  0.73244360     0.18600
C1476       C  0.73735403  0.86680302  0.64385771    -0.29000
H1477       H  0.74854958  0.87386537  0.61734635     0.18600
H1478       H  0.59993878  0.73166664  0.60496375     0.18600
H1479       H  0.60792851  0.87683567  0.71526964     0.18700
H1480       H  0.60065350  0.73271368  0.72015221     0.18600
C1481       C  0.65093021  0.82677602  0.73960762    -0.16000
C1482       C  0.64865005  0.83164621  0.77056481     0.08000
C1483       C  0.64533094  0.83848800  0.80607661     0.09900
C1484       C  0.64387116  0.84176227  0.83754735    -0.16900
C1485       C  0.65075515  0.82513329  0.58965517    -0.16000
C1486       C  0.65103029  0.82686838  0.55757014     0.08000
C1487       C  0.65094803  0.83020753  0.52024390     0.09900
C1488       C  0.65013981  0.83315941  0.98811448    -0.16900
C1489       C  0.57131629  0.67673271  0.66157588    -0.10800
C1490       C  0.55424788  0.64015671  0.66168630    -0.12400
C1491       C  0.84557458  0.92856382  0.68381626    -0.10800
C1492       C  0.80733263  0.90576400  0.68066251    -0.12400
C1493       C  0.57153968  0.93431487  0.65976468    -0.10800
C1494       C  0.58374549  0.91044470  0.65552392    -0.12400
C1495       C  0.56026049  0.65328571  0.90143806    -0.10800
C1496       C  0.57671931  0.68986647  0.90239174    -0.12400
C1497       C  0.80366638  0.91356245  0.92567619    -0.10800
C1498       C  0.84231084  0.93369534  0.93125871    -0.12400
C1499       C  0.55317683  0.93416961  0.91691625    -0.10800
C1500       C  0.56672810  0.91130379  0.91273327    -0.12400
C1501       C  0.95852851  0.59491488  0.72851199    -0.10800
C1502       C  0.94497670  0.61778025  0.73269497    -0.12400
C1503       C  0.95144505  0.87579926  0.74398312    -0.10800
C1504       C  0.93498629  0.83921859  0.74302911    -0.12400
C1505       C  0.66939509  0.59539046  0.71416466    -0.10800
C1506       C  0.70803942  0.61552379  0.71974693    -0.12400
C1507       C  0.94016431  0.59477155  0.98565386    -0.10800
C1508       C  0.92795844  0.61864175  0.98989400    -0.12400
C1509       C  0.95745915  0.88893123  0.98374478    -0.10800
C1510       C  0.94039046  0.85235525  0.98385539    -0.12400
C1511       C  0.66613166  0.60052305  0.96160653    -0.10800
C1512       C  0.70437349  0.62332326  0.96475972    -0.12400
C1513       C  0.86077663  0.70231692  0.90581569    -0.16000
C1514       C  0.86305632  0.69744674  0.87485837     0.08000
C1515       C  0.86637453  0.69060275  0.83934689     0.09900
C1516       C  0.86783361  0.68732582  0.80787643    -0.16900
C1517       C  0.86094988  0.70394936  0.55576834    -0.16000
C1518       C  0.86067492  0.70221299  0.58785336     0.08000
C1519       C  0.86075784  0.69887408  0.62517964     0.09900
C1520       C  0.86156648  0.69592324  0.65730918    -0.16900
loop_ 
_geom_bond_atom_site_label_1 
_geom_bond_atom_site_label_2 
_geom_bond_distance 
_geom_bond_site_symmetry_2 
_ccdc_geom_bond_type 
C1            C3   1.524       .  S
C1            C5   1.527       .  S
C1            C4   1.526       .  S
C1          C183   1.433       .  S
C2            C6   1.531       .  S
C2            C8   1.530   1_554  S
C2            C7   1.531       .  S
C2          C187   1.435       .  S
C3           C11   1.370       .  A
C3          C196   1.384       .  A
C4           C15   1.374       .  A
C4          C197   1.388       .  A
C5           C19   1.377       .  A
C5          C198   1.386       .  A
C6            C9   1.382       .  A
C6          C193   1.384   1_554  A
C7           C13   1.376       .  A
C7          C194   1.388   1_554  A
C8           C16   1.376   1_556  A
C8          C195   1.386       .  A
C9           H22   1.083       .  S
C9          N200   1.358   1_554  A
N10          C11   1.353       .  A
N10         C199   1.358       .  A
N10         C178   1.399       .  S
C11          H12   1.083       .  S
C13          H23   1.082       .  S
C13          N14   1.356   1_554  A
N14         C205   1.355       .  A
N14         C370   1.400       .  S
C15          H21   1.083       .  S
C15         N204   1.355       .  A
C16          H18   1.083       .  S
C16         N207   1.356   1_554  A
N17          C19   1.356       .  A
N17         C206   1.356       .  A
N17         C182   1.402       .  S
C19          H20   1.082       .  S
C24          C26   1.530       .  S
C24          C28   1.528       .  S
C24          C27   1.526       .  S
C24         C190   1.435       .  S
C25          C29   1.529       .  S
C25          C31   1.531       .  S
C25          C30   1.530       .  S
C25         C186   1.432       .  S
C26          C34   1.374       .  A
C26          C29   1.388       .  A
C27          C38   1.375       .  A
C27          C30   1.385       .  A
C28          C42   1.376       .  A
C28          C31   1.385       .  A
C29          C32   1.379       .  A
C30          C36   1.377       .  A
C31          C39   1.379       .  A
C32          H45   1.083       .  S
C32          N33   1.357       .  A
N33          C34   1.356       .  A
N33         C172   1.402       .  S
C34          H35   1.083       .  S
C36          H46   1.083       .  S
C36          N37   1.356       .  A
N37          C38   1.356       .  A
N37         C174   1.401       .  S
C38          H44   1.083       .  S
C39          H41   1.082       .  S
C39          N40   1.357       .  A
N40          C42   1.356       .  A
N40         C176   1.403       .  S
C42          H43   1.083       .  S
O47          C55   1.270       .  A
O47        Co447   1.982       .  S
O48          C56   1.256       .  A
O48         Co68   2.001       .  S
O49          C57   1.243       .  A
O49         Co69   1.964       .  S
O50          C58   1.280       .  A
O50        Co260   2.057   1_554  S
O51          C57   1.251       .  A
O51        Co828   1.995   1_455  S
O52         C818   1.279       .  A
O52        Co257   2.034   1_554  S
O53          C56   1.244       .  A
O53        Co450   1.960   1_545  S
O54          C55   1.274       .  A
O54         Co69   2.012       .  S
C55         C181   1.435       .  S
C56         C177   1.432       .  S
C57         C165   1.434       .  S
C58         O812   1.279       .  A
C58        C1242   1.533       .  S
O59          C72   1.263       .  A
O59        Co827   2.013       .  S
O60         C833   1.313       .  A
O60         Co68   2.145       .  S
O61         C454   1.262       .  A
O61         Co69   1.980   1_565  S
O62          C75   1.273       .  A
O62         Co70   1.898       .  S
O63          C75   1.301       .  A
O63        Co448   2.077       .  S
O64          C74   1.267       .  A
O64         Co67   2.006       .  S
O65          C72   1.253       .  A
O65         Co70   1.976       .  S
O66          C73   1.274       .  A
O66         Co69   1.940       .  S
Co67        O427   1.982       .  S
Co67        O242   2.034       .  S
Co67        O819   2.013       .  S
Co67        O451   2.104       .  S
Co68        O811   1.995       .  S
Co68        O443   2.077   1_545  S
Co68        O831   2.265       .  S
Co69         O71   1.957       .  S
Co70        O240   2.057       .  S
Co70        O433   1.960       .  S
Co70       O1211   1.927       .  S
O71        Co447   2.104       .  S
O71        Co828   2.265   1_455  S
O71       Co1210   1.927   1_445  S
C72         C179   1.431       .  S
C73         O820   1.313   1_455  A
C73          C87   1.535       .  S
C74         O441   1.262       .  A
C74         C169   1.433       .  S
C75         C168   1.436       .  S
O76          C84   1.301       .  A
O76        Co476   2.077   1_545  S
O77          C85   1.267       .  A
O77         Co97   2.006       .  S
O78          C86   1.253       .  A
O78         Co98   1.976       .  S
O79        C1227   1.274       .  A
O79         Co99   1.940       .  S
O80          C86   1.263       .  A
O80        Co857   2.013   1_455  S
O81         C467   1.313       .  A
O81         Co96   2.145       .  S
O82          C85   1.262       .  A
O82        Co479   1.980   1_545  S
O83          C84   1.273       .  A
O83         Co98   1.898       .  S
C84         C175   1.436       .  S
C85         C171   1.433       .  S
C86         C160   1.431       .  S
C87        O1219   1.274   1_445  A
C87         O461   1.313       .  A
O88         C101   1.251       .  A
O88        Co856   1.995       .  S
O89         C862   1.279   1_565  A
O89         Co97   2.034   1_565  S
O90         C483   1.244       .  A
O90         Co98   1.960   1_565  S
O91         C104   1.274       .  A
O91         Co99   2.012       .  S
O92         C104   1.270       .  A
O92        Co477   1.982       .  S
O93         C103   1.256       .  A
O93         Co96   2.001       .  S
O94         C101   1.243       .  A
O94         Co99   1.964       .  S
O95         C102   1.280       .  A
O95         Co98   2.057       .  S
Co96        O456   2.077       .  S
Co96        O848   1.995       .  S
Co96        O480   2.265   1_455  S
Co97        O840   2.013       .  S
Co97        O472   1.982   1_545  S
Co97        O860   2.104   1_545  S
Co98        O100   1.927   1_445  S
Co99        O462   1.980       .  S
Co99       O1240   1.957       .  S
O100       Co476   2.265   1_655  S
O100       Co857   2.104   1_565  S
O100      Co1239   1.957       .  S
C101        C173   1.434       .  S
C102        O849   1.279   1_445  A
C102       C1198   1.533       .  S
C103        O470   1.244       .  A
C103        C163   1.432       .  S
C104        C161   1.435       .  S
C105        C107   1.529       .  S
C105        C109   1.531       .  S
C105        C108   1.530       .  S
C105        C154   1.432       .  S
C106        C110   1.530       .  S
C106        C112   1.528       .  S
C106        C111   1.526       .  S
C106        C158   1.435       .  S
C107        C115   1.379       .  A
C107        C110   1.388       .  A
C108        C119   1.377       .  A
C108        C111   1.385       .  A
C109        C123   1.379       .  A
C109        C112   1.385       .  A
C110        C113   1.374       .  A
C111        C117   1.375       .  A
C112        C120   1.376       .  A
C113        H126   1.083       .  S
C113        N114   1.356       .  A
N114        C115   1.357       .  A
N114        C170   1.402       .  S
C115        H116   1.083       .  S
C117        H127   1.083       .  S
C117        N118   1.356       .  A
N118        C119   1.356       .  A
N118        C166   1.401       .  S
C119        H125   1.083       .  S
C120        H122   1.083       .  S
C120        N121   1.356       .  A
N121        C123   1.357       .  A
N121        C167   1.403       .  S
C123        H124   1.082       .  S
C128        C130   1.531       .  S
C128        C132   1.530       .  S
C128        C131   1.531       .  S
C128        C155   1.435       .  S
C129        C133   1.524       .  S
C129        C135   1.527       .  S
C129        C134   1.526       .  S
C129        C151   1.433       .  S
C130        C138   1.382       .  A
C130        C133   1.384       .  A
C131        C142   1.376       .  A
C131        C134   1.388       .  A
C132        C146   1.376       .  A
C132        C135   1.386       .  A
C133        C136   1.370       .  A
C134        C140   1.374       .  A
C135        C143   1.377       .  A
C136        H149   1.083       .  S
C136        N137   1.353       .  A
N137        C138   1.358       .  A
N137        C164   1.399       .  S
C138        H139   1.083       .  S
C140        H150   1.083       .  S
C140        N141   1.355       .  A
N141        C142   1.356       .  A
N141        C159   1.400       .  S
C142        H148   1.082       .  S
C143        H145   1.082       .  S
C143        N144   1.356       .  A
N144        C146   1.356       .  A
N144        C162   1.402       .  S
C146        H147   1.083       .  S
C151        C152   1.186       .  T
C152        C153   1.379       .  S
C153        C154   1.185       .  T
C155        C156   1.186       .  T
C156        C157   1.380       .  S
C157        C348   1.187   1_554  T
C158        C347   1.187       .  T
C159        C160   1.204       .  T
C161        C162   1.206       .  T
C163        C164   1.204       .  T
C165        C166   1.205       .  T
C167        C168   1.207       .  T
C169        C170   1.205       .  T
C171        C172   1.205       .  T
C173        C174   1.205       .  T
C175        C176   1.207       .  T
C177        C178   1.204       .  T
C179        C180   1.204       .  T
C180        N204   1.400       .  S
C181        C182   1.206       .  T
C183        C184   1.186       .  T
C184        C185   1.379       .  S
C185        C186   1.185       .  T
C187        C188   1.186       .  T
C188        C189   1.380       .  S
C189        C190   1.187       .  T
C191        C193   1.524       .  S
C191        C195   1.527       .  S
C191        C194   1.526       .  S
C191        C373   1.433       .  S
C192        C196   1.531       .  S
C192        C198   1.530       .  S
C192        C197   1.531       .  S
C192        C377   1.435       .  S
C193        C201   1.370       .  A
C194        C205   1.374       .  A
C195        C209   1.377       .  A
C196        C199   1.382       .  A
C197        C203   1.376       .  A
C198        C206   1.376       .  A
C199        H212   1.083       .  S
N200        C201   1.353       .  A
N200        C368   1.399       .  S
C201        H202   1.083       .  S
C203        H213   1.083       .  S
C203        N204   1.356       .  A
C205        H211   1.083       .  S
C206        H208   1.083       .  S
N207        C209   1.356       .  A
N207        C372   1.402       .  S
C209        H210   1.082       .  S
C214        C216   1.530       .  S
C214        C218   1.528       .  S
C214        C217   1.526       .  S
C214        C380   1.435       .  S
C215        C219   1.529       .  S
C215        C221   1.531       .  S
C215        C220   1.530       .  S
C215        C376   1.432       .  S
C216        C224   1.374       .  A
C216        C219   1.388       .  A
C217        C228   1.375       .  A
C217        C220   1.385       .  A
C218        C232   1.376       .  A
C218        C221   1.385       .  A
C219        C222   1.379       .  A
C220        C226   1.377       .  A
C221        C229   1.379       .  A
C222        H235   1.083       .  S
C222        N223   1.357       .  A
N223        C224   1.356       .  A
N223        C362   1.402       .  S
C224        H225   1.083       .  S
C226        H236   1.083       .  S
C226        N227   1.356       .  A
N227        C228   1.356       .  A
N227        C364   1.401       .  S
C228        H234   1.083       .  S
C229        H231   1.082       .  S
C229        N230   1.357       .  A
N230        C232   1.356       .  A
N230        C366   1.403       .  S
C232        H233   1.083       .  S
O237        C245   1.270       .  A
O237       Co637   1.982       .  S
O238        C246   1.256       .  A
O238       Co258   2.001       .  S
O239        C247   1.243       .  A
O239       Co259   1.964       .  S
O240        C248   1.280       .  A
O241        C247   1.251       .  A
O241      Co1018   1.995   1_455  S
O242       C1008   1.279       .  A
O243        C246   1.244       .  A
O243       Co640   1.960   1_545  S
O244        C245   1.274       .  A
O244       Co259   2.012       .  S
C245        C371   1.435       .  S
C246        C367   1.432       .  S
C247        C355   1.434       .  S
C248       O1002   1.279       .  A
C248       C1432   1.533       .  S
O249        C262   1.263   1_554  A
O249      Co1017   2.013   1_554  S
O250       C1023   1.313       .  A
O250       Co258   2.145       .  S
O251        C644   1.262       .  A
O251       Co259   1.980   1_565  S
O252        C265   1.273       .  A
O252       Co260   1.898       .  S
O253        C265   1.301       .  A
O253       Co638   2.077       .  S
O254        C264   1.267       .  A
O254       Co257   2.006       .  S
O255        C262   1.253       .  A
O255       Co260   1.976       .  S
O256        C263   1.274       .  A
O256       Co259   1.940       .  S
Co257       O617   1.982       .  S
Co257      O1009   2.013   1_556  S
Co257       O641   2.104       .  S
Co258      O1001   1.995       .  S
Co258       O633   2.077   1_545  S
Co258      O1021   2.265       .  S
Co259       O261   1.957       .  S
Co260       O623   1.960       .  S
Co260      O1401   1.927       .  S
O261       Co637   2.104       .  S
O261      Co1018   2.265   1_455  S
O261      Co1400   1.927   1_445  S
C262        C369   1.431       .  S
C263       O1010   1.313   1_455  A
C263        C277   1.535       .  S
C264        O631   1.262       .  A
C264        C359   1.433       .  S
C265        C358   1.436       .  S
O266        C274   1.301       .  A
O266       Co666   2.077   1_545  S
O267        C275   1.267       .  A
O267       Co287   2.006       .  S
O268        C276   1.253       .  A
O268       Co288   1.976       .  S
O269       C1417   1.274       .  A
O269       Co289   1.940       .  S
O270        C276   1.263       .  A
O270      Co1047   2.013   1_455  S
O271        C657   1.313       .  A
O271       Co286   2.145       .  S
O272        C275   1.262       .  A
O272       Co669   1.980   1_545  S
O273        C274   1.273       .  A
O273       Co288   1.898       .  S
C274        C365   1.436       .  S
C275        C361   1.433       .  S
C276        C350   1.431       .  S
C277       O1409   1.274   1_445  A
C277        O651   1.313       .  A
O278        C291   1.251       .  A
O278      Co1046   1.995       .  S
O279       C1052   1.279   1_565  A
O279       Co287   2.034   1_565  S
O280        C673   1.244       .  A
O280       Co288   1.960   1_565  S
O281        C294   1.274       .  A
O281       Co289   2.012       .  S
O282        C294   1.270       .  A
O282       Co667   1.982       .  S
O283        C293   1.256       .  A
O283       Co286   2.001       .  S
O284        C291   1.243       .  A
O284       Co289   1.964       .  S
O285        C292   1.280       .  A
O285       Co288   2.057       .  S
Co286       O646   2.077       .  S
Co286      O1038   1.995       .  S
Co286       O670   2.265   1_455  S
Co287      O1030   2.013       .  S
Co287       O662   1.982   1_545  S
Co287      O1050   2.104   1_545  S
Co288       O290   1.927   1_445  S
Co289       O652   1.980       .  S
Co289      O1430   1.957       .  S
O290       Co666   2.265   1_655  S
O290      Co1047   2.104   1_565  S
O290      Co1429   1.957       .  S
C291        C363   1.434       .  S
C292       O1039   1.279   1_445  A
C292       C1388   1.533       .  S
C293        O660   1.244       .  A
C293        C353   1.432       .  S
C294        C351   1.435       .  S
C295        C297   1.529       .  S
C295        C299   1.531       .  S
C295        C298   1.530       .  S
C295        C344   1.432       .  S
C296        C300   1.530       .  S
C296        C302   1.528       .  S
C296        C301   1.526       .  S
C296        C348   1.435       .  S
C297        C305   1.379       .  A
C297        C300   1.388       .  A
C298        C309   1.377       .  A
C298        C301   1.385       .  A
C299        C313   1.379       .  A
C299        C302   1.385       .  A
C300        C303   1.374       .  A
C301        C307   1.375       .  A
C302        C310   1.376       .  A
C303        H316   1.083       .  S
C303        N304   1.356       .  A
N304        C305   1.357       .  A
N304        C360   1.402       .  S
C305        H306   1.083       .  S
C307        H317   1.083       .  S
C307        N308   1.356       .  A
N308        C309   1.356       .  A
N308        C356   1.401       .  S
C309        H315   1.083       .  S
C310        H312   1.083       .  S
C310        N311   1.356       .  A
N311        C313   1.357       .  A
N311        C357   1.403       .  S
C313        H314   1.082       .  S
C318        C320   1.531       .  S
C318        C322   1.530       .  S
C318        C321   1.531       .  S
C318        C345   1.435       .  S
C319        C323   1.524       .  S
C319        C325   1.527       .  S
C319        C324   1.526       .  S
C319        C341   1.433       .  S
C320        C328   1.382       .  A
C320        C323   1.384       .  A
C321        C332   1.376       .  A
C321        C324   1.388       .  A
C322        C336   1.376       .  A
C322        C325   1.386       .  A
C323        C326   1.370       .  A
C324        C330   1.374       .  A
C325        C333   1.377       .  A
C326        H339   1.083       .  S
C326        N327   1.353       .  A
N327        C328   1.358       .  A
N327        C354   1.399       .  S
C328        H329   1.083       .  S
C330        H340   1.083       .  S
C330        N331   1.355       .  A
N331        C332   1.356       .  A
N331        C349   1.400       .  S
C332        H338   1.082       .  S
C333        H335   1.082       .  S
C333        N334   1.356       .  A
N334        C336   1.356       .  A
N334        C352   1.402       .  S
C336        H337   1.083       .  S
C341        C342   1.186       .  T
C342        C343   1.379       .  S
C343        C344   1.185       .  T
C345        C346   1.186       .  T
C346        C347   1.380       .  S
C349        C350   1.204       .  T
C351        C352   1.206       .  T
C353        C354   1.204       .  T
C355        C356   1.205       .  T
C357        C358   1.207       .  T
C359        C360   1.205       .  T
C361        C362   1.205       .  T
C363        C364   1.205       .  T
C365        C366   1.207       .  T
C367        C368   1.204       .  T
C369        C370   1.204       .  T
C371        C372   1.206       .  T
C373        C374   1.186       .  T
C374        C375   1.379       .  S
C375        C376   1.185       .  T
C377        C378   1.186       .  T
C378        C379   1.380       .  S
C379        C380   1.187       .  T
C381        C383   1.524       .  S
C381        C385   1.527       .  S
C381        C384   1.526       .  S
C381        C563   1.433       .  S
C382        C386   1.531       .  S
C382        C388   1.530   1_554  S
C382        C387   1.531       .  S
C382        C567   1.435       .  S
C383        C391   1.370       .  A
C383        C576   1.384       .  A
C384        C395   1.374       .  A
C384        C577   1.388       .  A
C385        C399   1.377       .  A
C385        C578   1.386       .  A
C386        C573   1.384   1_554  A
C386        C389   1.382       .  A
C387        C574   1.388   1_554  A
C387        C393   1.376       .  A
C388        C575   1.386       .  A
C388        C396   1.376   1_556  A
C389        H402   1.083       .  S
C389        N580   1.358   1_554  A
N390        C579   1.358       .  A
N390        C391   1.353       .  A
N390        C558   1.399       .  S
C391        H392   1.083       .  S
C393        H403   1.083       .  S
C393        N394   1.356   1_554  A
N394        C585   1.355       .  A
N394        C750   1.400       .  S
C395        H401   1.083       .  S
C395        N584   1.355       .  A
C396        H398   1.083       .  S
C396        N587   1.356   1_554  A
N397        C586   1.356       .  A
N397        C399   1.356       .  A
N397        C562   1.402       .  S
C399        H400   1.082       .  S
C404        C406   1.530       .  S
C404        C408   1.528       .  S
C404        C407   1.526       .  S
C404        C570   1.435       .  S
C405        C409   1.529       .  S
C405        C411   1.531       .  S
C405        C410   1.530       .  S
C405        C566   1.432       .  S
C406        C414   1.374       .  A
C406        C409   1.388       .  A
C407        C418   1.375       .  A
C407        C410   1.385       .  A
C408        C422   1.376       .  A
C408        C411   1.385       .  A
C409        C412   1.379       .  A
C410        C416   1.377       .  A
C411        C419   1.379       .  A
C412        H425   1.083       .  S
C412        N413   1.357       .  A
N413        C414   1.356       .  A
N413        C552   1.402       .  S
C414        H415   1.083       .  S
C416        H426   1.083       .  S
C416        N417   1.356       .  A
N417        C418   1.356       .  A
N417        C554   1.401       .  S
C418        H424   1.083       .  S
C419        H421   1.082       .  S
C419        N420   1.357       .  A
N420        C422   1.356       .  A
N420        C556   1.403       .  S
C422        H423   1.083       .  S
O427        C435   1.270       .  A
O428        C436   1.256       .  A
O428       Co448   2.001       .  S
O429        C437   1.243       .  A
O429       Co449   1.964       .  S
O430        C438   1.280   1_565  A
O430       Co640   2.057   1_554  S
O431        C437   1.251       .  A
O431      Co1208   1.995   1_455  S
O432       C1198   1.279       .  A
O432       Co637   2.034   1_554  S
O433        C436   1.244       .  A
O434        C435   1.274       .  A
O434       Co449   2.012       .  S
C435        C561   1.435       .  S
C436        C557   1.432       .  S
C437        C545   1.434       .  S
C438       O1192   1.279       .  A
C438        C862   1.533       .  S
O439        C452   1.263       .  A
O439      Co1207   2.013   1_565  S
O440       C1213   1.313       .  A
O440       Co448   2.145       .  S
O441       Co449   1.980       .  S
O442        C455   1.273       .  A
O442       Co450   1.898       .  S
O443        C455   1.301       .  A
O444        C454   1.267       .  A
O444       Co447   2.006   1_565  S
O445        C452   1.253       .  A
O445       Co450   1.976       .  S
O446        C453   1.274       .  A
O446       Co449   1.940       .  S
Co447       O622   2.034       .  S
Co447      O1199   2.013   1_545  S
Co448      O1191   1.995       .  S
Co448      O1211   2.265       .  S
Co449       O451   1.957       .  S
Co450       O620   2.057       .  S
Co450       O831   1.927   1_565  S
O451      Co1208   2.265   1_455  S
O451       Co830   1.927   1_455  S
C452        C559   1.431       .  S
C453       O1200   1.313   1_455  A
C453        C467   1.535       .  S
C454        C549   1.433       .  S
C455        C548   1.436       .  S
O456        C464   1.301       .  A
O457        C465   1.267       .  A
O457       Co477   2.006       .  S
O458        C466   1.253       .  A
O458       Co478   1.976       .  S
O459        C847   1.274   1_565  A
O459       Co479   1.940       .  S
O460        C466   1.263       .  A
O460      Co1237   2.013   1_455  S
O461       Co476   2.145   1_545  S
O462        C465   1.262       .  A
O463        C464   1.273       .  A
O463       Co478   1.898       .  S
C464        C555   1.436       .  S
C465        C551   1.433       .  S
C466        C540   1.431       .  S
C467        O839   1.274   1_455  A
O468        C481   1.251       .  A
O468      Co1236   1.995       .  S
O469       C1242   1.279       .  A
O469       Co477   2.034       .  S
O470       Co478   1.960       .  S
O471        C484   1.274       .  A
O471       Co479   2.012       .  S
O472        C484   1.270       .  A
O473        C483   1.256       .  A
O473       Co476   2.001       .  S
O474        C481   1.243       .  A
O474       Co479   1.964       .  S
O475        C482   1.280       .  A
O475       Co478   2.057       .  S
Co476      O1228   1.995       .  S
Co477      O1220   2.013       .  S
Co477      O1240   2.104       .  S
Co478       O480   1.927   1_455  S
Co479       O860   1.957       .  S
O480      Co1237   2.104       .  S
O480       Co859   1.957       .  S
C481        C553   1.434       .  S
C482       O1229   1.279   1_455  A
C482        C818   1.533       .  S
C483        C543   1.432       .  S
C484        C541   1.435       .  S
C485        C487   1.529       .  S
C485        C489   1.531       .  S
C485        C488   1.530       .  S
C485        C534   1.432       .  S
C486        C490   1.530       .  S
C486        C492   1.528       .  S
C486        C491   1.526       .  S
C486        C538   1.435       .  S
C487        C495   1.379       .  A
C487        C490   1.388       .  A
C488        C499   1.377       .  A
C488        C491   1.385       .  A
C489        C503   1.379       .  A
C489        C492   1.385       .  A
C490        C493   1.374       .  A
C491        C497   1.375       .  A
C492        C500   1.376       .  A
C493        H506   1.083       .  S
C493        N494   1.356       .  A
N494        C495   1.357       .  A
N494        C550   1.402       .  S
C495        H496   1.083       .  S
C497        H507   1.083       .  S
C497        N498   1.356       .  A
N498        C499   1.356       .  A
N498        C546   1.401       .  S
C499        H505   1.083       .  S
C500        H502   1.083       .  S
C500        N501   1.356       .  A
N501        C503   1.357       .  A
N501        C547   1.403       .  S
C503        H504   1.082       .  S
C508        C510   1.531       .  S
C508        C512   1.530       .  S
C508        C511   1.531       .  S
C508        C535   1.435       .  S
C509        C513   1.524       .  S
C509        C515   1.527       .  S
C509        C514   1.526       .  S
C509        C531   1.433       .  S
C510        C518   1.382       .  A
C510        C513   1.384       .  A
C511        C522   1.376       .  A
C511        C514   1.388       .  A
C512        C526   1.376       .  A
C512        C515   1.386       .  A
C513        C516   1.370       .  A
C514        C520   1.374       .  A
C515        C523   1.377       .  A
C516        H529   1.083       .  S
C516        N517   1.353       .  A
N517        C518   1.358       .  A
N517        C544   1.399       .  S
C518        H519   1.083       .  S
C520        H530   1.083       .  S
C520        N521   1.355       .  A
N521        C522   1.356       .  A
N521        C539   1.400       .  S
C522        H528   1.082       .  S
C523        H525   1.082       .  S
C523        N524   1.356       .  A
N524        C526   1.356       .  A
N524        C542   1.402       .  S
C526        H527   1.083       .  S
C531        C532   1.186       .  T
C532        C533   1.379       .  S
C533        C534   1.185       .  T
C535        C536   1.186       .  T
C536        C537   1.380       .  S
C537        C728   1.187   1_554  T
C538        C727   1.187       .  T
C539        C540   1.204       .  T
C541        C542   1.206       .  T
C543        C544   1.204       .  T
C545        C546   1.205       .  T
C547        C548   1.207       .  T
C549        C550   1.205       .  T
C551        C552   1.205       .  T
C553        C554   1.205       .  T
C555        C556   1.207       .  T
C557        C558   1.204       .  T
C559        C560   1.204       .  T
C560        N584   1.400       .  S
C561        C562   1.206       .  T
C563        C564   1.186       .  T
C564        C565   1.379       .  S
C565        C566   1.185       .  T
C567        C568   1.186       .  T
C568        C569   1.380       .  S
C569        C570   1.187       .  T
C571        C573   1.524       .  S
C571        C575   1.527       .  S
C571        C574   1.526       .  S
C571        C753   1.433       .  S
C572        C576   1.531       .  S
C572        C578   1.530       .  S
C572        C577   1.531       .  S
C572        C757   1.435       .  S
C573        C581   1.370       .  A
C574        C585   1.374       .  A
C575        C589   1.377       .  A
C576        C579   1.382       .  A
C577        C583   1.376       .  A
C578        C586   1.376       .  A
C579        H592   1.083       .  S
N580        C581   1.353       .  A
N580        C748   1.399       .  S
C581        H582   1.083       .  S
C583        H593   1.083       .  S
C583        N584   1.356       .  A
C585        H591   1.083       .  S
C586        H588   1.083       .  S
N587        C589   1.356       .  A
N587        C752   1.402       .  S
C589        H590   1.082       .  S
C594        C596   1.530       .  S
C594        C598   1.528       .  S
C594        C597   1.526       .  S
C594        C760   1.435       .  S
C595        C599   1.529       .  S
C595        C601   1.531       .  S
C595        C600   1.530       .  S
C595        C756   1.432       .  S
C596        C604   1.374       .  A
C596        C599   1.388       .  A
C597        C608   1.375       .  A
C597        C600   1.385       .  A
C598        C612   1.376       .  A
C598        C601   1.385       .  A
C599        C602   1.379       .  A
C600        C606   1.377       .  A
C601        C609   1.379       .  A
C602        H615   1.083       .  S
C602        N603   1.357       .  A
N603        C604   1.356       .  A
N603        C742   1.402       .  S
C604        H605   1.083       .  S
C606        H616   1.083       .  S
C606        N607   1.356       .  A
N607        C608   1.356       .  A
N607        C744   1.401       .  S
C608        H614   1.083       .  S
C609        H611   1.082       .  S
C609        N610   1.357       .  A
N610        C612   1.356       .  A
N610        C746   1.403       .  S
C612        H613   1.083       .  S
O617        C625   1.270       .  A
O618        C626   1.256       .  A
O618       Co638   2.001       .  S
O619        C627   1.243       .  A
O619       Co639   1.964       .  S
O620        C628   1.280   1_565  A
O621        C627   1.251       .  A
O621      Co1398   1.995   1_455  S
O622       C1388   1.279       .  A
O623        C626   1.244       .  A
O624        C625   1.274       .  A
O624       Co639   2.012       .  S
C625        C751   1.435       .  S
C626        C747   1.432       .  S
C627        C735   1.434       .  S
C628       O1382   1.279       .  A
C628       C1052   1.533       .  S
O629        C642   1.263   1_554  A
O629      Co1397   2.013   1_564  S
O630       C1403   1.313       .  A
O630       Co638   2.145       .  S
O631       Co639   1.980       .  S
O632        C645   1.273       .  A
O632       Co640   1.898       .  S
O633        C645   1.301       .  A
O634        C644   1.267       .  A
O634       Co637   2.006   1_565  S
O635        C642   1.253       .  A
O635       Co640   1.976       .  S
O636        C643   1.274       .  A
O636       Co639   1.940       .  S
Co637      O1389   2.013   1_546  S
Co638      O1381   1.995       .  S
Co638      O1401   2.265       .  S
Co639       O641   1.957       .  S
Co640      O1021   1.927   1_565  S
O641      Co1398   2.265   1_455  S
O641      Co1020   1.927   1_455  S
C642        C749   1.431       .  S
C643       O1390   1.313   1_455  A
C643        C657   1.535       .  S
C644        C739   1.433       .  S
C645        C738   1.436       .  S
O646        C654   1.301       .  A
O647        C655   1.267       .  A
O647       Co667   2.006       .  S
O648        C656   1.253       .  A
O648       Co668   1.976       .  S
O649       C1037   1.274   1_565  A
O649       Co669   1.940       .  S
O650        C656   1.263       .  A
O650      Co1427   2.013   1_455  S
O651       Co666   2.145   1_545  S
O652        C655   1.262       .  A
O653        C654   1.273       .  A
O653       Co668   1.898       .  S
C654        C745   1.436       .  S
C655        C741   1.433       .  S
C656        C730   1.431       .  S
C657       O1029   1.274   1_455  A
O658        C671   1.251       .  A
O658      Co1426   1.995       .  S
O659       C1432   1.279       .  A
O659       Co667   2.034       .  S
O660       Co668   1.960       .  S
O661        C674   1.274       .  A
O661       Co669   2.012       .  S
O662        C674   1.270       .  A
O663        C673   1.256       .  A
O663       Co666   2.001       .  S
O664        C671   1.243       .  A
O664       Co669   1.964       .  S
O665        C672   1.280       .  A
O665       Co668   2.057       .  S
Co666      O1418   1.995       .  S
Co667      O1410   2.013       .  S
Co667      O1430   2.104       .  S
Co668       O670   1.927   1_455  S
Co669      O1050   1.957       .  S
O670      Co1427   2.104       .  S
O670      Co1049   1.957       .  S
C671        C743   1.434       .  S
C672       O1419   1.279   1_455  A
C672       C1008   1.533       .  S
C673        C733   1.432       .  S
C674        C731   1.435       .  S
C675        C677   1.529       .  S
C675        C679   1.531       .  S
C675        C678   1.530       .  S
C675        C724   1.432       .  S
C676        C680   1.530       .  S
C676        C682   1.528       .  S
C676        C681   1.526       .  S
C676        C728   1.435       .  S
C677        C685   1.379       .  A
C677        C680   1.388       .  A
C678        C689   1.377       .  A
C678        C681   1.385       .  A
C679        C693   1.379       .  A
C679        C682   1.385       .  A
C680        C683   1.374       .  A
C681        C687   1.375       .  A
C682        C690   1.376       .  A
C683        H696   1.083       .  S
C683        N684   1.356       .  A
N684        C685   1.357       .  A
N684        C740   1.402       .  S
C685        H686   1.083       .  S
C687        H697   1.083       .  S
C687        N688   1.356       .  A
N688        C689   1.356       .  A
N688        C736   1.401       .  S
C689        H695   1.083       .  S
C690        H692   1.083       .  S
C690        N691   1.356       .  A
N691        C693   1.357       .  A
N691        C737   1.403       .  S
C693        H694   1.082       .  S
C698        C700   1.531       .  S
C698        C702   1.530       .  S
C698        C701   1.531       .  S
C698        C725   1.435       .  S
C699        C703   1.524       .  S
C699        C705   1.527       .  S
C699        C704   1.526       .  S
C699        C721   1.433       .  S
C700        C708   1.382       .  A
C700        C703   1.384       .  A
C701        C712   1.376       .  A
C701        C704   1.388       .  A
C702        C716   1.376       .  A
C702        C705   1.386       .  A
C703        C706   1.370       .  A
C704        C710   1.374       .  A
C705        C713   1.377       .  A
C706        H719   1.083       .  S
C706        N707   1.353       .  A
N707        C708   1.358       .  A
N707        C734   1.399       .  S
C708        H709   1.083       .  S
C710        H720   1.083       .  S
C710        N711   1.355       .  A
N711        C712   1.356       .  A
N711        C729   1.400       .  S
C712        H718   1.082       .  S
C713        H715   1.082       .  S
C713        N714   1.356       .  A
N714        C716   1.356       .  A
N714        C732   1.402       .  S
C716        H717   1.083       .  S
C721        C722   1.186       .  T
C722        C723   1.379       .  S
C723        C724   1.185       .  T
C725        C726   1.186       .  T
C726        C727   1.380       .  S
C729        C730   1.204       .  T
C731        C732   1.206       .  T
C733        C734   1.204       .  T
C735        C736   1.205       .  T
C737        C738   1.207       .  T
C739        C740   1.205       .  T
C741        C742   1.205       .  T
C743        C744   1.205       .  T
C745        C746   1.207       .  T
C747        C748   1.204       .  T
C749        C750   1.204       .  T
C751        C752   1.206       .  T
C753        C754   1.186       .  T
C754        C755   1.379       .  S
C755        C756   1.185       .  T
C757        C758   1.186       .  T
C758        C759   1.380       .  S
C759        C760   1.187       .  T
C761        C763   1.524       .  S
C761        C765   1.527       .  S
C761        C764   1.526       .  S
C761        C943   1.433       .  S
C762        C766   1.531       .  S
C762        C768   1.530   1_554  S
C762        C767   1.531       .  S
C762        C947   1.435       .  S
C763        C771   1.370       .  A
C763        C956   1.384       .  A
C764        C775   1.374       .  A
C764        C957   1.388       .  A
C765        C779   1.377       .  A
C765        C958   1.386       .  A
C766        C953   1.384   1_554  A
C766        C769   1.382       .  A
C767        C954   1.388   1_554  A
C767        C773   1.376       .  A
C768        C955   1.386       .  A
C768        C776   1.376   1_556  A
C769        H782   1.083       .  S
C769        N960   1.358   1_554  A
N770        C959   1.358       .  A
N770        C771   1.353       .  A
N770        C938   1.399       .  S
C771        H772   1.083       .  S
C773        H783   1.082       .  S
C773        N774   1.356   1_554  A
N774        C965   1.355       .  A
N774       C1130   1.400       .  S
C775        H781   1.083       .  S
C775        N964   1.355       .  A
C776        H778   1.083       .  S
C776        N967   1.356   1_554  A
N777        C966   1.356       .  A
N777        C779   1.356       .  A
N777        C942   1.402       .  S
C779        H780   1.082       .  S
C784        C786   1.530       .  S
C784        C788   1.528       .  S
C784        C787   1.526       .  S
C784        C950   1.435       .  S
C785        C789   1.529       .  S
C785        C791   1.531       .  S
C785        C790   1.530       .  S
C785        C946   1.432       .  S
C786        C794   1.374       .  A
C786        C789   1.388       .  A
C787        C798   1.375       .  A
C787        C790   1.385       .  A
C788        C802   1.376       .  A
C788        C791   1.385       .  A
C789        C792   1.379       .  A
C790        C796   1.377       .  A
C791        C799   1.379       .  A
C792        H805   1.083       .  S
C792        N793   1.357       .  A
N793        C794   1.356       .  A
N793        C932   1.402       .  S
C794        H795   1.083       .  S
C796        H806   1.083       .  S
C796        N797   1.356       .  A
N797        C798   1.356       .  A
N797        C934   1.401       .  S
C798        H804   1.083       .  S
C799        H801   1.082       .  S
C799        N800   1.357       .  A
N800        C802   1.356       .  A
N800        C936   1.403       .  S
C802        H803   1.083       .  S
O807        C815   1.270       .  A
O807      Co1207   1.982       .  S
O808        C816   1.256       .  A
O808       Co828   2.001       .  S
O809        C817   1.243       .  A
O809       Co829   1.964       .  S
O810        C818   1.280   1_655  A
O810      Co1020   2.057   1_554  S
O811        C817   1.251       .  A
O812      Co1017   2.034   1_554  S
O813        C816   1.244       .  A
O813      Co1210   1.960   1_545  S
O814        C815   1.274       .  A
O814       Co829   2.012       .  S
C815        C941   1.435       .  S
C816        C937   1.432       .  S
C817        C925   1.434       .  S
O819        C832   1.263   1_455  A
O820       Co828   2.145       .  S
O821       C1214   1.262       .  A
O821       Co829   1.980   1_565  S
O822        C835   1.273       .  A
O822       Co830   1.898       .  S
O823        C835   1.301       .  A
O823      Co1208   2.077       .  S
O824        C834   1.267       .  A
O824       Co827   2.006       .  S
O825        C832   1.253       .  A
O825       Co830   1.976       .  S
O826        C833   1.274       .  A
O826       Co829   1.940       .  S
Co827      O1187   1.982       .  S
Co827      O1002   2.034       .  S
Co827      O1211   2.104       .  S
Co828      O1203   2.077   1_545  S
Co829       O831   1.957       .  S
Co830      O1000   2.057       .  S
Co830      O1193   1.960       .  S
O831      Co1207   2.104       .  S
C832        C939   1.431       .  S
C833        C847   1.535       .  S
C834       O1201   1.262       .  A
C834        C929   1.433       .  S
C835        C928   1.436       .  S
O836        C844   1.301       .  A
O836      Co1236   2.077   1_545  S
O837        C845   1.267       .  A
O837       Co857   2.006       .  S
O838        C846   1.253       .  A
O838       Co858   1.976       .  S
O839       Co859   1.940       .  S
O840        C846   1.263       .  A
O841       C1227   1.313       .  A
O841       Co856   2.145       .  S
O842        C845   1.262       .  A
O842      Co1239   1.980   1_545  S
O843        C844   1.273       .  A
O843       Co858   1.898       .  S
C844        C935   1.436       .  S
C845        C931   1.433       .  S
C846        C920   1.431       .  S
C847       O1221   1.313       .  A
O848        C861   1.251   1_455  A
O849       Co857   2.034   1_565  S
O850       C1243   1.244       .  A
O850       Co858   1.960   1_565  S
O851        C864   1.274       .  A
O851       Co859   2.012       .  S
O852        C864   1.270       .  A
O852      Co1237   1.982       .  S
O853        C863   1.256       .  A
O853       Co856   2.001       .  S
O854        C861   1.243       .  A
O854       Co859   1.964       .  S
O855        C862   1.280       .  A
O855       Co858   2.057       .  S
Co856      O1216   2.077       .  S
Co856      O1240   2.265       .  S
Co857      O1232   1.982   1_545  S
Co858       O860   1.927   1_545  S
Co859      O1222   1.980       .  S
O860      Co1236   2.265       .  S
C861        C933   1.434       .  S
C863       O1230   1.244       .  A
C863        C923   1.432       .  S
C864        C921   1.435       .  S
C865        C867   1.529       .  S
C865        C869   1.531       .  S
C865        C868   1.530       .  S
C865        C914   1.432       .  S
C866        C870   1.530       .  S
C866        C872   1.528       .  S
C866        C871   1.526       .  S
C866        C918   1.435       .  S
C867        C875   1.379       .  A
C867        C870   1.388       .  A
C868        C879   1.377       .  A
C868        C871   1.385       .  A
C869        C883   1.379       .  A
C869        C872   1.385       .  A
C870        C873   1.374       .  A
C871        C877   1.375       .  A
C872        C880   1.376       .  A
C873        H886   1.083       .  S
C873        N874   1.356       .  A
N874        C875   1.357       .  A
N874        C930   1.402       .  S
C875        H876   1.083       .  S
C877        H887   1.083       .  S
C877        N878   1.356       .  A
N878        C879   1.356       .  A
N878        C926   1.401       .  S
C879        H885   1.083       .  S
C880        H882   1.083       .  S
C880        N881   1.356       .  A
N881        C883   1.357       .  A
N881        C927   1.403       .  S
C883        H884   1.082       .  S
C888        C890   1.531       .  S
C888        C892   1.530       .  S
C888        C891   1.531       .  S
C888        C915   1.435       .  S
C889        C893   1.524       .  S
C889        C895   1.527       .  S
C889        C894   1.526       .  S
C889        C911   1.433       .  S
C890        C898   1.382       .  A
C890        C893   1.384       .  A
C891        C902   1.376       .  A
C891        C894   1.388       .  A
C892        C906   1.376       .  A
C892        C895   1.386       .  A
C893        C896   1.370       .  A
C894        C900   1.374       .  A
C895        C903   1.377       .  A
C896        H909   1.083       .  S
C896        N897   1.353       .  A
N897        C898   1.358       .  A
N897        C924   1.399       .  S
C898        H899   1.083       .  S
C900        H910   1.083       .  S
C900        N901   1.355       .  A
N901        C902   1.356       .  A
N901        C919   1.400       .  S
C902        H908   1.083       .  S
C903        H905   1.082       .  S
C903        N904   1.356       .  A
N904        C906   1.356       .  A
N904        C922   1.402       .  S
C906        H907   1.083       .  S
C911        C912   1.186       .  T
C912        C913   1.379       .  S
C913        C914   1.185       .  T
C915        C916   1.186       .  T
C916        C917   1.380       .  S
C917       C1108   1.187   1_554  T
C918       C1107   1.187       .  T
C919        C920   1.204       .  T
C921        C922   1.206       .  T
C923        C924   1.204       .  T
C925        C926   1.205       .  T
C927        C928   1.207       .  T
C929        C930   1.205       .  T
C931        C932   1.205       .  T
C933        C934   1.205       .  T
C935        C936   1.207       .  T
C937        C938   1.204       .  T
C939        C940   1.204       .  T
C940        N964   1.400       .  S
C941        C942   1.206       .  T
C943        C944   1.186       .  T
C944        C945   1.379       .  S
C945        C946   1.185       .  T
C947        C948   1.186       .  T
C948        C949   1.380       .  S
C949        C950   1.187       .  T
C951        C953   1.524       .  S
C951        C955   1.527       .  S
C951        C954   1.526       .  S
C951       C1133   1.433       .  S
C952        C956   1.531       .  S
C952        C958   1.530       .  S
C952        C957   1.531       .  S
C952       C1137   1.435       .  S
C953        C961   1.370       .  A
C954        C965   1.374       .  A
C955        C969   1.377       .  A
C956        C959   1.382       .  A
C957        C963   1.376       .  A
C958        C966   1.376       .  A
C959        H972   1.083       .  S
N960        C961   1.353       .  A
N960       C1128   1.399       .  S
C961        H962   1.083       .  S
C963        H973   1.083       .  S
C963        N964   1.356       .  A
C965        H971   1.083       .  S
C966        H968   1.083       .  S
N967        C969   1.356       .  A
N967       C1132   1.402       .  S
C969        H970   1.082       .  S
C974        C976   1.530       .  S
C974        C978   1.528       .  S
C974        C977   1.526       .  S
C974       C1140   1.435       .  S
C975        C979   1.529       .  S
C975        C981   1.531       .  S
C975        C980   1.530       .  S
C975       C1136   1.432       .  S
C976        C984   1.374       .  A
C976        C979   1.388       .  A
C977        C988   1.375       .  A
C977        C980   1.385       .  A
C978        C992   1.376       .  A
C978        C981   1.385       .  A
C979        C982   1.379       .  A
C980        C986   1.377       .  A
C981        C989   1.379       .  A
C982        H995   1.083       .  S
C982        N983   1.357       .  A
N983        C984   1.356       .  A
N983       C1122   1.402       .  S
C984        H985   1.083       .  S
C986        H996   1.083       .  S
C986        N987   1.356       .  A
N987        C988   1.356       .  A
N987       C1124   1.401       .  S
C988        H994   1.083       .  S
C989        H991   1.082       .  S
C989        N990   1.357       .  A
N990        C992   1.356       .  A
N990       C1126   1.403       .  S
C992        H993   1.083       .  S
O997       C1005   1.270       .  A
O997      Co1397   1.982       .  S
O998       C1006   1.256       .  A
O998      Co1018   2.001       .  S
O999       C1007   1.243       .  A
O999      Co1019   1.964       .  S
O1000      C1008   1.280   1_655  A
O1001      C1007   1.251       .  A
O1003      C1006   1.244       .  A
O1003     Co1400   1.960   1_545  S
O1004      C1005   1.274       .  A
O1004     Co1019   2.012       .  S
C1005      C1131   1.435       .  S
C1006      C1127   1.432       .  S
C1007      C1115   1.434       .  S
O1009      C1022   1.263   1_454  A
O1010     Co1018   2.145       .  S
O1011      C1404   1.262       .  A
O1011     Co1019   1.980   1_565  S
O1012      C1025   1.273       .  A
O1012     Co1020   1.898       .  S
O1013      C1025   1.301       .  A
O1013     Co1398   2.077       .  S
O1014      C1024   1.267       .  A
O1014     Co1017   2.006       .  S
O1015      C1022   1.253       .  A
O1015     Co1020   1.976       .  S
O1016      C1023   1.274       .  A
O1016     Co1019   1.940       .  S
Co1017     O1377   1.982       .  S
Co1017     O1401   2.104       .  S
Co1018     O1393   2.077   1_545  S
Co1019     O1021   1.957       .  S
Co1020     O1383   1.960       .  S
O1021     Co1397   2.104       .  S
C1022      C1129   1.431       .  S
C1023      C1037   1.535       .  S
C1024      O1391   1.262       .  A
C1024      C1119   1.433       .  S
C1025      C1118   1.436       .  S
O1026      C1034   1.301       .  A
O1026     Co1426   2.077   1_545  S
O1027      C1035   1.267       .  A
O1027     Co1047   2.006       .  S
O1028      C1036   1.253       .  A
O1028     Co1048   1.976       .  S
O1029     Co1049   1.940       .  S
O1030      C1036   1.263       .  A
O1031      C1417   1.313       .  A
O1031     Co1046   2.145       .  S
O1032      C1035   1.262       .  A
O1032     Co1429   1.980   1_545  S
O1033      C1034   1.273       .  A
O1033     Co1048   1.898       .  S
C1034      C1125   1.436       .  S
C1035      C1121   1.433       .  S
C1036      C1110   1.431       .  S
C1037      O1411   1.313       .  A
O1038      C1051   1.251   1_455  A
O1039     Co1047   2.034   1_565  S
O1040      C1433   1.244       .  A
O1040     Co1048   1.960   1_565  S
O1041      C1054   1.274       .  A
O1041     Co1049   2.012       .  S
O1042      C1054   1.270       .  A
O1042     Co1427   1.982       .  S
O1043      C1053   1.256       .  A
O1043     Co1046   2.001       .  S
O1044      C1051   1.243       .  A
O1044     Co1049   1.964       .  S
O1045      C1052   1.280       .  A
O1045     Co1048   2.057       .  S
Co1046     O1406   2.077       .  S
Co1046     O1430   2.265       .  S
Co1047     O1422   1.982   1_545  S
Co1048     O1050   1.927   1_545  S
Co1049     O1412   1.980       .  S
O1050     Co1426   2.265       .  S
C1051      C1123   1.434       .  S
C1053      O1420   1.244       .  A
C1053      C1113   1.432       .  S
C1054      C1111   1.435       .  S
C1055      C1057   1.529       .  S
C1055      C1059   1.531       .  S
C1055      C1058   1.530       .  S
C1055      C1104   1.432       .  S
C1056      C1060   1.530       .  S
C1056      C1062   1.528       .  S
C1056      C1061   1.526       .  S
C1056      C1108   1.435       .  S
C1057      C1065   1.379       .  A
C1057      C1060   1.388       .  A
C1058      C1069   1.377       .  A
C1058      C1061   1.385       .  A
C1059      C1073   1.379       .  A
C1059      C1062   1.385       .  A
C1060      C1063   1.374       .  A
C1061      C1067   1.375       .  A
C1062      C1070   1.376       .  A
C1063      H1076   1.083       .  S
C1063      N1064   1.356       .  A
N1064      C1065   1.357       .  A
N1064      C1120   1.402       .  S
C1065      H1066   1.083       .  S
C1067      H1077   1.083       .  S
C1067      N1068   1.356       .  A
N1068      C1069   1.356       .  A
N1068      C1116   1.401       .  S
C1069      H1075   1.083       .  S
C1070      H1072   1.083       .  S
C1070      N1071   1.356       .  A
N1071      C1073   1.357       .  A
N1071      C1117   1.403       .  S
C1073      H1074   1.082       .  S
C1078      C1080   1.531       .  S
C1078      C1082   1.530       .  S
C1078      C1081   1.531       .  S
C1078      C1105   1.435       .  S
C1079      C1083   1.524       .  S
C1079      C1085   1.527       .  S
C1079      C1084   1.526       .  S
C1079      C1101   1.433       .  S
C1080      C1088   1.382       .  A
C1080      C1083   1.384       .  A
C1081      C1092   1.376       .  A
C1081      C1084   1.388       .  A
C1082      C1096   1.376       .  A
C1082      C1085   1.386       .  A
C1083      C1086   1.370       .  A
C1084      C1090   1.374       .  A
C1085      C1093   1.377       .  A
C1086      H1099   1.083       .  S
C1086      N1087   1.353       .  A
N1087      C1088   1.358       .  A
N1087      C1114   1.399       .  S
C1088      H1089   1.083       .  S
C1090      H1100   1.083       .  S
C1090      N1091   1.355       .  A
N1091      C1092   1.356       .  A
N1091      C1109   1.400       .  S
C1092      H1098   1.082       .  S
C1093      H1095   1.082       .  S
C1093      N1094   1.356       .  A
N1094      C1096   1.356       .  A
N1094      C1112   1.402       .  S
C1096      H1097   1.083       .  S
C1101      C1102   1.186       .  T
C1102      C1103   1.379       .  S
C1103      C1104   1.185       .  T
C1105      C1106   1.186       .  T
C1106      C1107   1.380       .  S
C1109      C1110   1.204       .  T
C1111      C1112   1.206       .  T
C1113      C1114   1.204       .  T
C1115      C1116   1.205       .  T
C1117      C1118   1.207       .  T
C1119      C1120   1.205       .  T
C1121      C1122   1.205       .  T
C1123      C1124   1.205       .  T
C1125      C1126   1.207       .  T
C1127      C1128   1.204       .  T
C1129      C1130   1.204       .  T
C1131      C1132   1.206       .  T
C1133      C1134   1.186       .  T
C1134      C1135   1.379       .  S
C1135      C1136   1.185       .  T
C1137      C1138   1.186       .  T
C1138      C1139   1.380       .  S
C1139      C1140   1.187       .  T
C1141      C1143   1.524       .  S
C1141      C1145   1.527       .  S
C1141      C1144   1.526       .  S
C1141      C1323   1.433       .  S
C1142      C1146   1.531       .  S
C1142      C1148   1.530   1_554  S
C1142      C1147   1.531       .  S
C1142      C1327   1.435       .  S
C1143      C1151   1.370       .  A
C1143      C1336   1.384       .  A
C1144      C1155   1.374       .  A
C1144      C1337   1.388       .  A
C1145      C1159   1.377       .  A
C1145      C1338   1.386       .  A
C1146      C1333   1.384   1_554  A
C1146      C1149   1.382       .  A
C1147      C1334   1.388   1_554  A
C1147      C1153   1.376       .  A
C1148      C1335   1.386       .  A
C1148      C1156   1.376   1_556  A
C1149      H1162   1.083       .  S
C1149      N1340   1.358   1_554  A
N1150      C1339   1.358       .  A
N1150      C1151   1.353       .  A
N1150      C1318   1.399       .  S
C1151      H1152   1.083       .  S
C1153      H1163   1.082       .  S
C1153      N1154   1.356   1_554  A
N1154      C1345   1.355       .  A
N1154      C1510   1.400       .  S
C1155      H1161   1.083       .  S
C1155      N1344   1.355       .  A
C1156      H1158   1.083       .  S
C1156      N1347   1.356   1_554  A
N1157      C1346   1.356       .  A
N1157      C1159   1.356       .  A
N1157      C1322   1.402       .  S
C1159      H1160   1.082       .  S
C1164      C1166   1.530       .  S
C1164      C1168   1.528       .  S
C1164      C1167   1.526       .  S
C1164      C1330   1.435       .  S
C1165      C1169   1.529       .  S
C1165      C1171   1.531       .  S
C1165      C1170   1.530       .  S
C1165      C1326   1.432       .  S
C1166      C1174   1.374       .  A
C1166      C1169   1.388       .  A
C1167      C1178   1.375       .  A
C1167      C1170   1.385       .  A
C1168      C1182   1.376       .  A
C1168      C1171   1.385       .  A
C1169      C1172   1.379       .  A
C1170      C1176   1.377       .  A
C1171      C1179   1.379       .  A
C1172      H1185   1.083       .  S
C1172      N1173   1.357       .  A
N1173      C1174   1.356       .  A
N1173      C1312   1.402       .  S
C1174      H1175   1.083       .  S
C1176      H1186   1.083       .  S
C1176      N1177   1.356       .  A
N1177      C1178   1.356       .  A
N1177      C1314   1.401       .  S
C1178      H1184   1.083       .  S
C1179      H1181   1.082       .  S
C1179      N1180   1.357       .  A
N1180      C1182   1.356       .  A
N1180      C1316   1.403       .  S
C1182      H1183   1.083       .  S
O1187      C1195   1.270       .  A
O1188      C1196   1.256       .  A
O1188     Co1208   2.001       .  S
O1189      C1197   1.243       .  A
O1189     Co1209   1.964       .  S
O1190      C1198   1.280   1_665  A
O1190     Co1400   2.057   1_554  S
O1191      C1197   1.251       .  A
O1192     Co1397   2.034   1_554  S
O1193      C1196   1.244       .  A
O1194      C1195   1.274       .  A
O1194     Co1209   2.012       .  S
C1195      C1321   1.435       .  S
C1196      C1317   1.432       .  S
C1197      C1305   1.434       .  S
O1199      C1212   1.263   1_455  A
O1200     Co1208   2.145       .  S
O1201     Co1209   1.980       .  S
O1202      C1215   1.273       .  A
O1202     Co1210   1.898       .  S
O1203      C1215   1.301       .  A
O1204      C1214   1.267       .  A
O1204     Co1207   2.006   1_565  S
O1205      C1212   1.253       .  A
O1205     Co1210   1.976       .  S
O1206      C1213   1.274       .  A
O1206     Co1209   1.940       .  S
Co1207     O1382   2.034       .  S
Co1209     O1211   1.957       .  S
Co1210     O1380   2.057       .  S
C1212      C1319   1.431       .  S
C1213      C1227   1.535       .  S
C1214      C1309   1.433       .  S
C1215      C1308   1.436       .  S
O1216      C1224   1.301       .  A
O1217      C1225   1.267       .  A
O1217     Co1237   2.006       .  S
O1218      C1226   1.253       .  A
O1218     Co1238   1.976       .  S
O1219     Co1239   1.940       .  S
O1220      C1226   1.263       .  A
O1221     Co1236   2.145   1_545  S
O1222      C1225   1.262       .  A
O1223      C1224   1.273       .  A
O1223     Co1238   1.898       .  S
C1224      C1315   1.436       .  S
C1225      C1311   1.433       .  S
C1226      C1300   1.431       .  S
O1228      C1241   1.251   1_455  A
O1229     Co1237   2.034       .  S
O1230     Co1238   1.960       .  S
O1231      C1244   1.274       .  A
O1231     Co1239   2.012       .  S
O1232      C1244   1.270       .  A
O1233      C1243   1.256       .  A
O1233     Co1236   2.001       .  S
O1234      C1241   1.243       .  A
O1234     Co1239   1.964       .  S
O1235      C1242   1.280       .  A
O1235     Co1238   2.057       .  S
Co1238     O1240   1.927       .  S
C1241      C1313   1.434       .  S
C1243      C1303   1.432       .  S
C1244      C1301   1.435       .  S
C1245      C1247   1.529       .  S
C1245      C1249   1.531       .  S
C1245      C1248   1.530       .  S
C1245      C1294   1.432       .  S
C1246      C1250   1.530       .  S
C1246      C1252   1.528       .  S
C1246      C1251   1.526       .  S
C1246      C1298   1.435       .  S
C1247      C1255   1.379       .  A
C1247      C1250   1.388       .  A
C1248      C1259   1.377       .  A
C1248      C1251   1.385       .  A
C1249      C1263   1.379       .  A
C1249      C1252   1.385       .  A
C1250      C1253   1.374       .  A
C1251      C1257   1.375       .  A
C1252      C1260   1.376       .  A
C1253      H1266   1.083       .  S
C1253      N1254   1.356       .  A
N1254      C1255   1.357       .  A
N1254      C1310   1.402       .  S
C1255      H1256   1.083       .  S
C1257      H1267   1.083       .  S
C1257      N1258   1.356       .  A
N1258      C1259   1.356       .  A
N1258      C1306   1.401       .  S
C1259      H1265   1.083       .  S
C1260      H1262   1.083       .  S
C1260      N1261   1.356       .  A
N1261      C1263   1.357       .  A
N1261      C1307   1.403       .  S
C1263      H1264   1.082       .  S
C1268      C1270   1.531       .  S
C1268      C1272   1.530       .  S
C1268      C1271   1.531       .  S
C1268      C1295   1.435       .  S
C1269      C1273   1.524       .  S
C1269      C1275   1.527       .  S
C1269      C1274   1.526       .  S
C1269      C1291   1.433       .  S
C1270      C1278   1.382       .  A
C1270      C1273   1.384       .  A
C1271      C1282   1.376       .  A
C1271      C1274   1.388       .  A
C1272      C1286   1.376       .  A
C1272      C1275   1.386       .  A
C1273      C1276   1.370       .  A
C1274      C1280   1.374       .  A
C1275      C1283   1.377       .  A
C1276      H1289   1.083       .  S
C1276      N1277   1.353       .  A
N1277      C1278   1.358       .  A
N1277      C1304   1.399       .  S
C1278      H1279   1.083       .  S
C1280      H1290   1.083       .  S
C1280      N1281   1.355       .  A
N1281      C1282   1.356       .  A
N1281      C1299   1.400       .  S
C1282      H1288   1.082       .  S
C1283      H1285   1.082       .  S
C1283      N1284   1.356       .  A
N1284      C1286   1.356       .  A
N1284      C1302   1.402       .  S
C1286      H1287   1.083       .  S
C1291      C1292   1.186       .  T
C1292      C1293   1.379       .  S
C1293      C1294   1.185       .  T
C1295      C1296   1.186       .  T
C1296      C1297   1.380       .  S
C1297      C1488   1.187   1_554  T
C1298      C1487   1.187       .  T
C1299      C1300   1.204       .  T
C1301      C1302   1.206       .  T
C1303      C1304   1.204       .  T
C1305      C1306   1.205       .  T
C1307      C1308   1.207       .  T
C1309      C1310   1.205       .  T
C1311      C1312   1.205       .  T
C1313      C1314   1.205       .  T
C1315      C1316   1.207       .  T
C1317      C1318   1.204       .  T
C1319      C1320   1.204       .  T
C1320      N1344   1.400       .  S
C1321      C1322   1.206       .  T
C1323      C1324   1.186       .  T
C1324      C1325   1.379       .  S
C1325      C1326   1.185       .  T
C1327      C1328   1.186       .  T
C1328      C1329   1.380       .  S
C1329      C1330   1.187       .  T
C1331      C1333   1.524       .  S
C1331      C1335   1.527       .  S
C1331      C1334   1.526       .  S
C1331      C1513   1.433       .  S
C1332      C1336   1.531       .  S
C1332      C1338   1.530       .  S
C1332      C1337   1.531       .  S
C1332      C1517   1.435       .  S
C1333      C1341   1.370       .  A
C1334      C1345   1.374       .  A
C1335      C1349   1.377       .  A
C1336      C1339   1.382       .  A
C1337      C1343   1.376       .  A
C1338      C1346   1.376       .  A
C1339      H1352   1.083       .  S
N1340      C1341   1.353       .  A
N1340      C1508   1.399       .  S
C1341      H1342   1.083       .  S
C1343      H1353   1.083       .  S
C1343      N1344   1.356       .  A
C1345      H1351   1.083       .  S
C1346      H1348   1.083       .  S
N1347      C1349   1.356       .  A
N1347      C1512   1.402       .  S
C1349      H1350   1.082       .  S
C1354      C1356   1.530       .  S
C1354      C1358   1.528       .  S
C1354      C1357   1.526       .  S
C1354      C1520   1.435       .  S
C1355      C1359   1.529       .  S
C1355      C1361   1.531       .  S
C1355      C1360   1.530       .  S
C1355      C1516   1.432       .  S
C1356      C1364   1.374       .  A
C1356      C1359   1.388       .  A
C1357      C1368   1.375       .  A
C1357      C1360   1.385       .  A
C1358      C1372   1.376       .  A
C1358      C1361   1.385       .  A
C1359      C1362   1.379       .  A
C1360      C1366   1.377       .  A
C1361      C1369   1.379       .  A
C1362      H1375   1.083       .  S
C1362      N1363   1.357       .  A
N1363      C1364   1.356       .  A
N1363      C1502   1.402       .  S
C1364      H1365   1.083       .  S
C1366      H1376   1.083       .  S
C1366      N1367   1.356       .  A
N1367      C1368   1.356       .  A
N1367      C1504   1.401       .  S
C1368      H1374   1.083       .  S
C1369      H1371   1.082       .  S
C1369      N1370   1.357       .  A
N1370      C1372   1.356       .  A
N1370      C1506   1.403       .  S
C1372      H1373   1.083       .  S
O1377      C1385   1.270       .  A
O1378      C1386   1.256       .  A
O1378     Co1398   2.001       .  S
O1379      C1387   1.243       .  A
O1379     Co1399   1.964       .  S
O1380      C1388   1.280   1_665  A
O1381      C1387   1.251       .  A
O1383      C1386   1.244       .  A
O1384      C1385   1.274       .  A
O1384     Co1399   2.012       .  S
C1385      C1511   1.435       .  S
C1386      C1507   1.432       .  S
C1387      C1495   1.434       .  S
O1389      C1402   1.263   1_454  A
O1390     Co1398   2.145       .  S
O1391     Co1399   1.980       .  S
O1392      C1405   1.273       .  A
O1392     Co1400   1.898       .  S
O1393      C1405   1.301       .  A
O1394      C1404   1.267       .  A
O1394     Co1397   2.006   1_565  S
O1395      C1402   1.253       .  A
O1395     Co1400   1.976       .  S
O1396      C1403   1.274       .  A
O1396     Co1399   1.940       .  S
Co1399     O1401   1.957       .  S
C1402      C1509   1.431       .  S
C1403      C1417   1.535       .  S
C1404      C1499   1.433       .  S
C1405      C1498   1.436       .  S
O1406      C1414   1.301       .  A
O1407      C1415   1.267       .  A
O1407     Co1427   2.006       .  S
O1408      C1416   1.253       .  A
O1408     Co1428   1.976       .  S
O1409     Co1429   1.940       .  S
O1410      C1416   1.263       .  A
O1411     Co1426   2.145   1_545  S
O1412      C1415   1.262       .  A
O1413      C1414   1.273       .  A
O1413     Co1428   1.898       .  S
C1414      C1505   1.436       .  S
C1415      C1501   1.433       .  S
C1416      C1490   1.431       .  S
O1418      C1431   1.251   1_455  A
O1419     Co1427   2.034       .  S
O1420     Co1428   1.960       .  S
O1421      C1434   1.274       .  A
O1421     Co1429   2.012       .  S
O1422      C1434   1.270       .  A
O1423      C1433   1.256       .  A
O1423     Co1426   2.001       .  S
O1424      C1431   1.243       .  A
O1424     Co1429   1.964       .  S
O1425      C1432   1.280       .  A
O1425     Co1428   2.057       .  S
Co1428     O1430   1.927       .  S
C1431      C1503   1.434       .  S
C1433      C1493   1.432       .  S
C1434      C1491   1.435       .  S
C1435      C1437   1.529       .  S
C1435      C1439   1.531       .  S
C1435      C1438   1.530       .  S
C1435      C1484   1.432       .  S
C1436      C1440   1.530       .  S
C1436      C1442   1.528       .  S
C1436      C1441   1.526       .  S
C1436      C1488   1.435       .  S
C1437      C1445   1.379       .  A
C1437      C1440   1.388       .  A
C1438      C1449   1.377       .  A
C1438      C1441   1.385       .  A
C1439      C1453   1.379       .  A
C1439      C1442   1.385       .  A
C1440      C1443   1.374       .  A
C1441      C1447   1.375       .  A
C1442      C1450   1.376       .  A
C1443      H1456   1.083       .  S
C1443      N1444   1.356       .  A
N1444      C1445   1.357       .  A
N1444      C1500   1.402       .  S
C1445      H1446   1.083       .  S
C1447      H1457   1.083       .  S
C1447      N1448   1.356       .  A
N1448      C1449   1.356       .  A
N1448      C1496   1.401       .  S
C1449      H1455   1.083       .  S
C1450      H1452   1.083       .  S
C1450      N1451   1.356       .  A
N1451      C1453   1.357       .  A
N1451      C1497   1.403       .  S
C1453      H1454   1.082       .  S
C1458      C1460   1.531       .  S
C1458      C1462   1.530       .  S
C1458      C1461   1.531       .  S
C1458      C1485   1.435       .  S
C1459      C1463   1.524       .  S
C1459      C1465   1.527       .  S
C1459      C1464   1.526       .  S
C1459      C1481   1.433       .  S
C1460      C1468   1.382       .  A
C1460      C1463   1.384       .  A
C1461      C1472   1.376       .  A
C1461      C1464   1.388       .  A
C1462      C1476   1.376       .  A
C1462      C1465   1.386       .  A
C1463      C1466   1.370       .  A
C1464      C1470   1.374       .  A
C1465      C1473   1.377       .  A
C1466      H1479   1.083       .  S
C1466      N1467   1.353       .  A
N1467      C1468   1.358       .  A
N1467      C1494   1.399       .  S
C1468      H1469   1.083       .  S
C1470      H1480   1.083       .  S
C1470      N1471   1.355       .  A
N1471      C1472   1.356       .  A
N1471      C1489   1.400       .  S
C1472      H1478   1.082       .  S
C1473      H1475   1.082       .  S
C1473      N1474   1.356       .  A
N1474      C1476   1.356       .  A
N1474      C1492   1.402       .  S
C1476      H1477   1.083       .  S
C1481      C1482   1.186       .  T
C1482      C1483   1.379       .  S
C1483      C1484   1.185       .  T
C1485      C1486   1.186       .  T
C1486      C1487   1.380       .  S
C1489      C1490   1.204       .  T
C1491      C1492   1.206       .  T
C1493      C1494   1.204       .  T
C1495      C1496   1.205       .  T
C1497      C1498   1.207       .  T
C1499      C1500   1.205       .  T
C1501      C1502   1.205       .  T
C1503      C1504   1.205       .  T
C1505      C1506   1.207       .  T
C1507      C1508   1.204       .  T
C1509      C1510   1.204       .  T
C1511      C1512   1.206       .  T
C1513      C1514   1.186       .  T
C1514      C1515   1.379       .  S
C1515      C1516   1.185       .  T
C1517      C1518   1.186       .  T
C1518      C1519   1.380       .  S
C1519      C1520   1.187       .  T
