geometry optimzed in LAMMPS
_audit_creation_date              2020-11-30 
_audit_creation_method            'lammps2cif' 
_symmetry_space_group_name_H-M    'P1' 
_symmetry_Int_Tables_number       1 
_symmetry_cell_setting            triclinic 
loop_ 
_symmetry_equiv_pos_as_xyz 
  x,y,z 
_cell_length_a                    25.30709363 
_cell_length_b                    25.30750700024448 
_cell_length_c                    25.307433811758404 
_cell_angle_alpha                 90.0006527981425 
_cell_angle_beta                  89.99982666891823 
_cell_angle_gamma                 89.99974815447003 
loop_ 
_atom_site_label 
_atom_site_type_symbol 
_atom_site_fract_x 
_atom_site_fract_y 
_atom_site_fract_z 
_atom_site_charge 
C1          C  0.15667215  0.73612102  0.95374135     0.78600
N2          N  0.10325498  0.73262217  0.95369347    -0.79700
C3          C  0.07657780  0.73087039  0.00029739     0.81100
N4          N  0.10346592  0.73195469  0.04681647    -0.79600
C5          C  0.15690325  0.73535011  0.04660438     0.81200
N6          N  0.18303615  0.73770436  0.00013161    -0.81300
C7          C  0.33846632  0.59489327  0.04707713     0.78600
N8          N  0.33833828  0.62110225  0.00039736    -0.79700
C9          C  0.33946408  0.59489572  0.95372076     0.81100
N10         N  0.34046329  0.54116661  0.95373167    -0.79600
C11         C  0.34094982  0.51408615  0.00037079     0.81200
N12         N  0.33957245  0.54114112  0.04704262    -0.81300
C13         C  0.93882091  0.23467164  0.04626427     0.78600
N14         N  0.91270694  0.23224887  0.99978391    -0.79700
C15         C  0.93908175  0.23383266  0.95340313     0.81100
N16         N  0.99251223  0.23739945  0.95339358    -0.79600
C17         C  0.01915749  0.23923104  0.00003793     0.81200
N18         N  0.99223812  0.23814405  0.04651634    -0.81300
C19         C  0.75620695  0.37489234  0.95342490     0.78600
N20         N  0.75522385  0.42862858  0.95348065    -0.79700
C21         C  0.75479485  0.45566918  0.00015545     0.81100
N22         N  0.75621785  0.42857733  0.04679265    -0.79600
C23         C  0.75730924  0.37483362  0.04678384     0.81200
N24         N  0.75737707  0.34865583  0.00008554    -0.81300
C25         C  0.79854310  0.93815538  0.10908188     0.78600
N26         N  0.79484706  0.93813185  0.05566398    -0.79700
C27         C  0.79300528  0.98476111  0.02900528     0.81100
N28         N  0.79422163  0.03125100  0.05590584    -0.79600
C29         C  0.79781373  0.03101222  0.10931878     0.81200
N30         N  0.80023550  0.98453898  0.13544223    -0.81300
C31         C  0.65799743  0.03155805  0.29097706     0.78600
N32         N  0.68418278  0.98486330  0.29089385    -0.79700
C33         C  0.65795399  0.93819808  0.29213254     0.81100
N34         N  0.60422494  0.93823907  0.29320666    -0.79600
C35         C  0.57717013  0.98489613  0.29365625     0.81200
N36         N  0.60424744  0.03154988  0.29215835    -0.81300
C37         C  0.29791586  0.03108516  0.89121777     0.78600
N38         N  0.30145672  0.03131866  0.94464315    -0.79700
C39         C  0.30259084  0.98481643  0.97154969     0.81100
N40         N  0.30072518  0.93819801  0.94489662    -0.79600
C41         C  0.29708583  0.93822618  0.89148498     0.81200
N42         N  0.29546602  0.98460591  0.86510872    -0.81300
C43         C  0.43776331  0.93816260  0.70846203     0.78600
N44         N  0.41153973  0.98483166  0.70957860    -0.79700
C45         C  0.43773056  0.03152436  0.70937514     0.81100
N46         N  0.49147547  0.03151861  0.70818945    -0.79600
C47         C  0.51855362  0.98486969  0.70680812     0.81200
N48         N  0.49149800  0.93820590  0.70738321    -0.81300
C49         C  0.93887575  0.73601576  0.04695666     0.78600
N50         N  0.99229614  0.73260116  0.04700339    -0.79700
C51         C  0.01896800  0.73081947  0.00039944     0.81100
N52         N  0.99207033  0.73180168  0.95388277    -0.79600
C53         C  0.93862643  0.73512166  0.95409904     0.81200
N54         N  0.91249958  0.73749886  0.00057166    -0.81300
C55         C  0.75616806  0.59480221  0.04690749     0.78600
N56         N  0.75720513  0.62104316  0.00024797    -0.79700
C57         C  0.75706867  0.59486480  0.95354840     0.81100
N58         N  0.75604855  0.54112067  0.95353572    -0.79600
C59         C  0.75475465  0.51402506  0.00017258     0.81200
N60         N  0.75524726  0.54106432  0.04684695    -0.81300
C61         C  0.15712471  0.23489148  0.95406753     0.78600
N62         N  0.18323603  0.23253573  0.00055184    -0.79700
C63         C  0.15684704  0.23407671  0.04692431     0.81100
N64         N  0.10341082  0.23754429  0.04691753    -0.79600
C65         C  0.07677095  0.23931031  0.00026798     0.81200
N66         N  0.10370095  0.23825285  0.95379723    -0.81300
C67         C  0.33854825  0.37492589  0.95356953     0.78600
N68         N  0.33958244  0.42867853  0.95361505    -0.79700
C69         C  0.34098823  0.45572665  0.00028963     0.81100
N70         N  0.34060056  0.42863704  0.04692499    -0.79600
C71         C  0.33967238  0.37490550  0.04692608     0.81200
N72         N  0.33851506  0.34870731  0.00024448    -0.81300
C73         C  0.79738413  0.93868614  0.89106039     0.78600
N74         N  0.79394057  0.93845354  0.94448389    -0.79700
C75         C  0.79290927  0.98494562  0.97139039     0.81100
N76         N  0.79479544  0.03157146  0.94472988    -0.79600
C77         C  0.79834168  0.03154059  0.89130304     0.81200
N78         N  0.79984832  0.98515562  0.86493467    -0.81300
C79         C  0.65773236  0.03152465  0.70823794     0.78600
N80         N  0.60399271  0.03150461  0.70722451    -0.79700
C81         C  0.57691574  0.98484987  0.70676833     0.81100
N82         N  0.60397528  0.93819217  0.70819835    -0.79600
C83         C  0.65771966  0.93816124  0.70931116     0.81200
N84         N  0.68393312  0.98484306  0.70940392    -0.81300
C85         C  0.29730460  0.03156401  0.10922825     0.78600
N86         N  0.29574542  0.98519154  0.13561785    -0.79700
C87         C  0.29814647  0.93871204  0.10950874     0.81100
N88         N  0.30158229  0.93846727  0.05607660    -0.79600
C89         C  0.30266028  0.98496365  0.02916135     0.81200
N90         N  0.30083701  0.03158348  0.05581130    -0.81300
C91         C  0.43798323  0.93818102  0.29122257     0.78600
N92         N  0.49173451  0.93819716  0.29232795    -0.79700
C93         C  0.51881054  0.98485556  0.29370142     0.81100
N94         N  0.49175210  0.03150989  0.29319973    -0.79600
C95         C  0.43802097  0.03154639  0.29219704     0.81200
N96         N  0.41179365  0.98487635  0.29108449    -0.81300
C97         C  0.00112830  0.09376665  0.75110738     0.78600
N98         N  0.04752209  0.12012296  0.75270346    -0.79700
C99         C  0.09399029  0.09398441  0.75031244     0.81100
N100        N  0.09419672  0.04055424  0.74685103    -0.79600
C101        C  0.04768049  0.01367066  0.74574223     0.81200
N102        N  0.00107528  0.04035055  0.74755096    -0.81300
C103        C  0.00122520  0.27672661  0.61013531     0.78600
N104        N  0.00128235  0.27776535  0.55639819    -0.79700
C105        C  0.04795399  0.27825610  0.52935197     0.81100
N106        N  0.09459885  0.27684034  0.55644656    -0.79600
C107        C  0.09459636  0.27570007  0.61019542     0.81200
N108        N  0.04789154  0.27557032  0.63637146    -0.81300
C109        C  0.09435907  0.87596515  0.75111564     0.78600
N110        N  0.09440476  0.92938184  0.74755428    -0.79700
C111        C  0.04779668  0.95605857  0.74573094     0.81100
N112        N  0.00128204  0.92917214  0.74682679    -0.79600
C113        C  0.00149439  0.87574206  0.75028072     0.81200
N114        N  0.04796553  0.84960669  0.75269014    -0.81300
C115        C  0.00102672  0.69402222  0.61034631     0.78600
N116        N  0.00106541  0.69287038  0.55659494    -0.79700
C117        C  0.04773571  0.69145555  0.52953992     0.81100
N118        N  0.09437996  0.69195820  0.55663015    -0.79600
C119        C  0.09439275  0.69300700  0.61036675     0.81200
N120        N  0.04770759  0.69416303  0.63656277    -0.81300
C121        C  0.09409324  0.87575327  0.25049955     0.78600
N122        N  0.09434639  0.92917384  0.25397996    -0.79700
C123        C  0.04786411  0.95609913  0.25503485     0.81100
N124        N  0.00122417  0.92945970  0.25314809    -0.79600
C125        C  0.00122911  0.87603455  0.24956888     0.81200
N126        N  0.04760831  0.84964866  0.24802872    -0.81300
C127        C  0.09452657  0.69399844  0.39036114     0.78600
N128        N  0.09447735  0.69285737  0.44411350    -0.79700
C129        C  0.04780280  0.69144669  0.47116464     0.81100
N130        N  0.00116053  0.69194088  0.44407060    -0.79600
C131        C  0.00115533  0.69297468  0.39033387     0.81200
N132        N  0.04784557  0.69412914  0.36414203    -0.81300
C133        C  0.00186805  0.09406266  0.25028526     0.78600
N134        N  0.00160041  0.04064511  0.25382911    -0.79700
C135        C  0.04807639  0.01371432  0.25499666     0.81100
N136        N  0.09472145  0.04034534  0.25316116    -0.79600
C137        C  0.09472879  0.09376487  0.24952179     0.81200
N138        N  0.04835857  0.12015757  0.24786934    -0.81300
C139        C  0.09470201  0.27673523  0.39021124     0.78600
N140        N  0.09463357  0.27776619  0.44394622    -0.79700
C141        C  0.04795717  0.27825844  0.47098203     0.81100
N142        N  0.00131751  0.27684885  0.44387725    -0.79600
C143        C  0.00133131  0.27571228  0.39012708     0.81200
N144        N  0.04804184  0.27558330  0.36396250    -0.81300
C145        C  0.29912660  0.53157337  0.39144932     0.78600
N146        N  0.29560273  0.53158513  0.44486836    -0.79700
C147        C  0.29387470  0.48495832  0.47151747     0.81100
N148        N  0.29501114  0.43846178  0.44460085    -0.79600
C149        C  0.29843752  0.43870875  0.39116850     0.81200
N150        N  0.30076440  0.48519697  0.36506184    -0.81300
C151        C  0.15803868  0.43820726  0.20965685     0.78600
N152        N  0.18421688  0.48490650  0.20978372    -0.79700
C153        C  0.15797751  0.53156906  0.20864662     0.81100
N154        N  0.10424753  0.53152187  0.20763934    -0.79600
C155        C  0.07719678  0.48486347  0.20715519     0.81200
N156        N  0.10428458  0.43821026  0.20854195    -0.81300
O157        O  0.23693330  0.74718585  0.09047880    -0.81700
O158        O  0.18851278  0.70206638  0.38391407    -0.83300
O159        O  0.16428918  0.62557996  0.21620447    -0.80300
O160        O  0.13794298  0.79576720  0.23846419    -0.78700
O161        O  0.18680055  0.86883518  0.26019780    -0.80500
O162        O  0.23934449  0.57515725  0.21684196    -0.81400
O163        O  0.13808150  0.70254477  0.30888043    -0.82700
O164        O  0.16386952  0.72537300  0.13930262    -0.83000
Eu165      Eu  0.19382378  0.71771536  0.23108963     2.39200
O166        O  0.22718644  0.76923529  0.30089079    -0.90500
O167        O  0.26357239  0.68440716  0.17966779    -0.94100
C168        C  0.18746359  0.73620603  0.09546391     1.00600
C169        C  0.14374782  0.69934897  0.35946488     1.00400
C170        C  0.18878556  0.58082466  0.21344795     1.00300
C171        C  0.14294290  0.84521731  0.24949409     0.98200
H172        H  0.22595734  0.63640045  0.29978248     0.27900
O173        O  0.24698932  0.66453907  0.28491795    -1.02900
H174        H  0.22266932  0.81019991  0.17519480     0.28000
O175        O  0.24469227  0.78814423  0.19721012    -1.05500
O176        O  0.35903329  0.72197399  0.40987014    -0.82700
O177        O  0.40718425  0.76900180  0.11671495    -0.82200
O178        O  0.31108932  0.57547546  0.31159056    -0.80700
O179        O  0.26371146  0.86855791  0.35973120    -0.84000
O180        O  0.28602474  0.89485869  0.18950684    -0.81900
O181        O  0.33055578  0.60136773  0.14104833    -0.80500
O182        O  0.45735372  0.67359389  0.26333492    -0.82000
O183        O  0.43149127  0.84420729  0.28316142    -0.83900
O184        O  0.40844571  0.60059648  0.24148432    -0.80700
O185        O  0.35647320  0.89467084  0.28276640    -0.83400
O186        O  0.28925065  0.62434423  0.38461999    -0.79100
O187        O  0.33005907  0.67639070  0.09060479    -0.79100
O188        O  0.30781390  0.84601558  0.11644804    -0.78800
O189        O  0.26422596  0.79350120  0.41015178    -0.82300
O190        O  0.43208721  0.74367885  0.36096852    -0.81700
O191        O  0.45763439  0.76844158  0.19175499    -0.80000
Eu192      Eu  0.28069234  0.71605003  0.35435676     2.39800
Eu193      Eu  0.31507762  0.75421706  0.14633195     2.39600
Eu194      Eu  0.31676219  0.63096238  0.23320968     2.38400
Eu195      Eu  0.27863102  0.83899004  0.26761221     2.39900
Eu196      Eu  0.40188764  0.75204030  0.26924346     2.39800
O197        O  0.34841712  0.80559535  0.21610279    -0.94400
O198        O  0.35075867  0.68203479  0.30327276    -0.93300
C199        C  0.40851233  0.73279239  0.40482015     1.00700
C200        C  0.45194507  0.77179258  0.14119073     0.99500
C201        C  0.30028385  0.58051150  0.36107350     0.98800
C202        C  0.26086634  0.84406721  0.40448311     1.00900
C203        C  0.29709815  0.88986690  0.14005798     0.99800
C204        C  0.33321527  0.62580584  0.09628145     0.98600
C205        C  0.45230332  0.62412044  0.25244681     0.98700
C206        C  0.40705975  0.88897962  0.28590849     1.01300
H207        H  0.39638191  0.68550439  0.17840512     0.28700
O208        O  0.36826872  0.70037591  0.19946651    -1.06600
H209        H  0.34728643  0.80683303  0.34888111     0.30700
O210        O  0.33243752  0.78578200  0.32074848    -1.09200
C211        C  0.43883433  0.23474648  0.45406128     0.78600
N212        N  0.41272427  0.23721157  0.50054335    -0.79700
C213        C  0.43909953  0.23557828  0.54692306     0.81100
N214        N  0.49252379  0.23190339  0.54692489    -0.79600
C215        C  0.51916434  0.23002278  0.50027942     0.81200
N216        N  0.49224477  0.23117586  0.45380423    -0.81300
C217        C  0.25716496  0.09489408  0.45358232     0.78600
N218        N  0.25598487  0.04114070  0.45362671    -0.79700
C219        C  0.25450270  0.01408941  0.50030109     0.81100
N220        N  0.25496093  0.04117777  0.54693946    -0.79600
C221        C  0.25603122  0.09490802  0.54694661     0.81200
N222        N  0.25725979  0.12110686  0.50026367    -0.81300
O223        O  0.28583517  0.07494178  0.81121092    -0.81700
O224        O  0.33053595  0.36846287  0.85960297    -0.83300
O225        O  0.40720931  0.20074380  0.88390954    -0.80300
O226        O  0.23709687  0.22288050  0.91023640    -0.78700
O227        O  0.16402456  0.24463274  0.86138954    -0.80500
O228        O  0.45761548  0.20130175  0.80884573    -0.81400
O229        O  0.33015516  0.29342965  0.91003308    -0.82700
O230        O  0.30766464  0.12379316  0.88425175    -0.83000
Eu231      Eu  0.31509669  0.21559298  0.85432396     2.39200
O232        O  0.26352937  0.28537740  0.82098679    -0.90500
O233        O  0.34835843  0.16413601  0.78458431    -0.94100
C234        C  0.29690101  0.07993821  0.86066078     1.00600
C235        C  0.33326657  0.34401879  0.90436319     1.00400
C236        C  0.45195774  0.19795182  0.85941012     1.00300
C237        C  0.18765061  0.23390739  0.90523498     0.98200
H238        H  0.39638139  0.28429113  0.82221026     0.27900
O239        O  0.36825057  0.26942630  0.80116669    -1.02900
H240        H  0.22262355  0.15965312  0.82553509     0.28000
O241        O  0.24465089  0.18167883  0.80349424    -1.05500
O242        O  0.31094882  0.39433782  0.68908343    -0.82700
O243        O  0.26361594  0.10126999  0.64095191    -0.82200
O244        O  0.45727349  0.29606535  0.73719307    -0.80700
O245        O  0.16412054  0.34416448  0.78437380    -0.84000
O246        O  0.13788183  0.17398095  0.76229635    -0.81900
O247        O  0.43128839  0.12547686  0.71745124    -0.80500
O248        O  0.35920967  0.24781320  0.59081259    -0.82000
O249        O  0.18857049  0.26765969  0.61669686    -0.83900
O250        O  0.43220964  0.22600580  0.63973555    -0.80700
O251        O  0.13809778  0.26719429  0.69170729    -0.83400
O252        O  0.40837729  0.36909145  0.75899937    -0.79100
O253        O  0.35625314  0.07504181  0.71790314    -0.79100
O254        O  0.18670995  0.10089551  0.74057154    -0.78800
O255        O  0.23915934  0.39461029  0.78381312    -0.82300
O256        O  0.28926178  0.34543548  0.61602964    -0.81700
O257        O  0.26426540  0.17630618  0.59049849    -0.80000
Eu258      Eu  0.31667983  0.33884315  0.76745436     2.39800
Eu259      Eu  0.27851663  0.13080135  0.73309090     2.39600
Eu260      Eu  0.40181421  0.21766982  0.73141178     2.38400
Eu261      Eu  0.19378637  0.25206817  0.76954531     2.39900
Eu262      Eu  0.28074109  0.25373656  0.64628158     2.39800
O263        O  0.22716981  0.20057943  0.69974526    -0.94400
O264        O  0.35073165  0.28773018  0.69743405    -0.93300
C265        C  0.30019645  0.38928285  0.63959023     1.00700
C266        C  0.26084988  0.12574868  0.59618713     0.99500
C267        C  0.45221796  0.34554542  0.74801104     0.98800
C268        C  0.18858916  0.38893073  0.78716669     1.00900
C269        C  0.14286044  0.12451653  0.75129615     0.99800
C270        C  0.40683283  0.08071940  0.71471783     0.98600
C271        C  0.40869156  0.23694616  0.59586822     0.98700
C272        C  0.14379354  0.27037139  0.64112462     1.01300
H273        H  0.34722219  0.16290741  0.65180591     0.28700
O274        O  0.33236671  0.18396167  0.67993207    -1.06600
H275        H  0.22591773  0.33336481  0.70084344     0.30700
O276        O  0.24695884  0.30523551  0.71571286    -1.09200
C277        C  0.43886949  0.73412723  0.45374815     0.78600
N278        N  0.49228685  0.73759436  0.45370821    -0.79700
C279        C  0.51895709  0.73936684  0.50031273     0.81100
N280        N  0.49206139  0.73830877  0.54682629    -0.79600
C281        C  0.43862165  0.73494501  0.54660460     0.81200
N282        N  0.41249291  0.73258980  0.50013129    -0.81300
C283        C  0.25696763  0.87490862  0.54709450     0.78600
N284        N  0.25711734  0.84869883  0.50040929    -0.79700
C285        C  0.25599858  0.87490369  0.45372721     0.81100
N286        N  0.25498002  0.92863538  0.45374213    -0.79600
C287        C  0.25447085  0.95571999  0.50038228     0.81200
N288        N  0.25584744  0.92866304  0.54705579    -0.81300
C289        C  0.29895969  0.43821246  0.60921363     0.78600
N290        N  0.29558601  0.43818618  0.55578528    -0.79700
C291        C  0.29378089  0.48480604  0.52913005     0.81100
N292        N  0.29470092  0.53130703  0.55604793    -0.79600
C293        C  0.29798001  0.53107239  0.60948935     0.81200
N294        N  0.30038056  0.48459264  0.63560371    -0.81300
C295        C  0.15773029  0.43817749  0.79198144     0.78600
N296        N  0.10399003  0.43820851  0.79292075    -0.79700
C297        C  0.07692027  0.48486698  0.79342485     0.81100
N298        N  0.10399182  0.53152313  0.79212483    -0.79600
C299        C  0.15774007  0.53154532  0.79108228     0.81200
N300        N  0.18394367  0.48485589  0.79093418    -0.81300
O301        O  0.23654281  0.74809233  0.90986767    -0.81700
O302        O  0.18839963  0.70066288  0.61675095    -0.83300
O303        O  0.13822354  0.79609776  0.76330608    -0.80300
O304        O  0.16419974  0.62552685  0.78316516    -0.78700
O305        O  0.23922609  0.57507787  0.78269762    -0.80500
O306        O  0.18715728  0.86912922  0.74160623    -0.81400
O307        O  0.13795149  0.70126535  0.69178968    -0.82700
O308        O  0.16350968  0.72628254  0.86098393    -0.83000
Eu309      Eu  0.19373406  0.71772300  0.76926831     2.39200
O310        O  0.24720472  0.66417860  0.71611593    -0.90500
O311        O  0.24485517  0.78775866  0.80328336    -0.94100
C312        C  0.18705863  0.73729770  0.90481970     1.00600
C313        C  0.14363466  0.69786547  0.64122429     1.00400
C314        C  0.14328837  0.84557840  0.75248143     1.00300
C315        C  0.18864387  0.58075690  0.78584866     0.98200
H316        H  0.19923311  0.78427473  0.67846239     0.27900
O317        O  0.22735906  0.76942499  0.69952176    -1.02900
H318        H  0.24831263  0.66297029  0.84891836     0.28000
O319        O  0.26317848  0.68400016  0.82077895    -1.05500
O320        O  0.35861436  0.72292898  0.59047456    -0.82700
O321        O  0.40707175  0.76756231  0.88395198    -0.82200
O322        O  0.26498228  0.86843973  0.64107630    -0.80700
O323        O  0.30979498  0.57493467  0.68952336    -0.84000
O324        O  0.33186665  0.60124279  0.85973324    -0.81900
O325        O  0.28481808  0.89434928  0.81164766    -0.80500
O326        O  0.43140952  0.84416048  0.71620705    -0.82000
O327        O  0.45763077  0.67395131  0.73829480    -0.83900
O328        O  0.35636544  0.89460151  0.71676458    -0.80700
O329        O  0.40880949  0.60088232  0.76009077    -0.83400
O330        O  0.26540862  0.79340970  0.59063522    -0.79100
O331        O  0.30666363  0.84544492  0.88465169    -0.79100
O332        O  0.33129500  0.67629430  0.91016207    -0.78800
O333        O  0.28805724  0.62377166  0.61644674    -0.82300
O334        O  0.43169151  0.74465746  0.63931442    -0.81700
O335        O  0.45749593  0.76711010  0.80891440    -0.80000
Eu336      Eu  0.28051028  0.71558288  0.64634731     2.39800
Eu337      Eu  0.31491314  0.75374379  0.85436597     2.39600
Eu338      Eu  0.27887622  0.83886638  0.73325256     2.38400
Eu339      Eu  0.31701195  0.63081211  0.76762146     2.39900
Eu340      Eu  0.40178091  0.75206351  0.73110973     2.39800
O341        O  0.36844882  0.70055186  0.80092776    -0.94400
O342        O  0.33201614  0.78537954  0.67972215    -0.93300
C343        C  0.40807570  0.73394720  0.59546231     1.00700
C344        C  0.45182885  0.77025785  0.85949798     0.99500
C345        C  0.26226207  0.84399758  0.59630925     0.98800
C346        C  0.29882436  0.57992448  0.64005437     1.00900
C347        C  0.33465815  0.62573123  0.90448662     0.99800
C348        C  0.29571508  0.88929738  0.86111302     0.98600
C349        C  0.40692983  0.88891873  0.71337335     0.98700
C350        C  0.45264927  0.62449074  0.74929758     1.01300
H351        H  0.36972307  0.83338080  0.79979213     0.28700
O352        O  0.34865196  0.80526255  0.78494338    -1.06600
H353        H  0.37293756  0.65963996  0.67517374     0.30700
O354        O  0.35090798  0.68166753  0.69721114    -1.09200
C355        C  0.79773393  0.53098884  0.39099919     0.78600
N356        N  0.79541485  0.48451313  0.36486928    -0.79700
C357        C  0.79695317  0.43813124  0.39124365     0.81100
N358        N  0.80037672  0.43811199  0.44467693    -0.79600
C359        C  0.80210491  0.48474291  0.47133951     0.81200
N360        N  0.80105585  0.53123181  0.44442994    -0.81300
C361        C  0.93800783  0.53159699  0.20955819     0.78600
N362        N  0.91180876  0.48490653  0.20961348    -0.79700
C363        C  0.93802585  0.43823022  0.20846602     0.81100
N364        N  0.99176099  0.43825677  0.20752416    -0.79600
C365        C  0.01883161  0.48490727  0.20711758     0.81200
N366        N  0.99176135  0.53157026  0.20851382    -0.81300
C367        C  0.59410220  0.59402233  0.25023656     0.78600
N368        N  0.54761557  0.62012323  0.25264619    -0.79700
C369        C  0.50124438  0.59373146  0.25110038     0.81100
N370        N  0.50124694  0.54030342  0.24757620    -0.79600
C371        C  0.54789168  0.51366813  0.24575810     0.81200
N372        N  0.59436931  0.54059876  0.24681825    -0.81300
C373        C  0.59452990  0.77557263  0.11032998     0.78600
N374        N  0.59449590  0.77666782  0.05658144    -0.79700
C375        C  0.54782753  0.77804697  0.02952955     0.81100
N376        N  0.50118498  0.77757031  0.05661123    -0.79600
C377        C  0.50117500  0.77658446  0.11034229     0.81200
N378        N  0.54785292  0.77545692  0.13654447    -0.81300
O379        O  0.81078386  0.89427887  0.18896291    -0.81700
O380        O  0.76377875  0.60114465  0.14091360    -0.83300
O381        O  0.85901432  0.74798931  0.09081698    -0.80300
O382        O  0.68848482  0.76755425  0.11676760    -0.78700
O383        O  0.63806283  0.76715376  0.19180982    -0.80500
O384        O  0.93206701  0.72626859  0.13971237    -0.81400
O385        O  0.76432380  0.67620201  0.09050260    -0.82700
O386        O  0.78895105  0.84536656  0.11595967    -0.83000
Eu387      Eu  0.78065738  0.75368664  0.14630101     2.39200
O388        O  0.72713267  0.70052865  0.19975891    -0.90500
O389        O  0.85071053  0.78772260  0.19738410    -0.94100
C390        C  0.79990029  0.88922479  0.13948655     1.00600
C391        C  0.76097909  0.62563237  0.09616169     1.00400
C392        C  0.90850248  0.73722725  0.09587342     1.00300
C393        C  0.64373097  0.77028408  0.14122452     0.98200
H394        H  0.84732429  0.66292763  0.15171894     0.27900
O395        O  0.83245258  0.68396329  0.17985253    -1.02900
H396        H  0.72589272  0.83333405  0.20089441     0.28000
O397        O  0.74695289  0.80520766  0.21574175    -1.05500
O398        O  0.78582717  0.57485344  0.31101230    -0.82700
O399        O  0.83061028  0.86830870  0.35962079    -0.82200
O400        O  0.93150949  0.62557874  0.21754297    -0.80700
O401        O  0.63792661  0.67400942  0.26227728    -0.84000
O402        O  0.66427302  0.84418946  0.28452746    -0.81900
O403        O  0.95734253  0.79616181  0.23734534    -0.80500
O404        O  0.90714458  0.70060703  0.38393477    -0.82000
O405        O  0.73690042  0.72270540  0.41020627    -0.83900
O406        O  0.95761229  0.70123857  0.30890778    -0.80700
O407        O  0.66383839  0.74450723  0.36137942    -0.83400
O408        O  0.85649254  0.57511912  0.21795345    -0.79100
O409        O  0.90841279  0.86917716  0.25909110    -0.79100
O410        O  0.73932293  0.89461957  0.28389426    -0.78800
O411        O  0.68678421  0.60097082  0.24043823    -0.82300
O412        O  0.80751975  0.62367613  0.38411432    -0.81700
O413        O  0.83014728  0.79328259  0.41007040    -0.80000
Eu414      Eu  0.77861550  0.63079266  0.23300202     2.39800
Eu415      Eu  0.81672186  0.83882037  0.26742030     2.39600
Eu416      Eu  0.90186070  0.71772899  0.23141801     2.38400
Eu417      Eu  0.69380278  0.75205589  0.26958943     2.39900
Eu418      Eu  0.81503171  0.71550766  0.35432553     2.39800
O419        O  0.76356382  0.78534979  0.32098118    -0.94400
O420        O  0.84838933  0.66415659  0.28454696    -0.93300
C421        C  0.79679882  0.57983682  0.36047530     1.00700
C422        C  0.83332089  0.84386346  0.40438602     0.99500
C423        C  0.90708151  0.58080441  0.21482951     0.98800
C424        C  0.64293455  0.62456933  0.25121153     1.00900
C425        C  0.68876591  0.88894543  0.28730677     0.99800
C426        C  0.95228319  0.84564426  0.24818722     0.98600
C427        C  0.95191660  0.69782496  0.35947020     0.98700
C428        C  0.68743628  0.73372312  0.40522688     1.01300
H429        H  0.89631257  0.78422327  0.32223402     0.28700
O430        O  0.86819160  0.76937013  0.30117102    -1.06600
H431        H  0.72262603  0.65957112  0.32544255     0.30700
O432        O  0.74466070  0.68161558  0.30342835    -1.09200
C433        C  0.65665289  0.73388457  0.54695884     0.78600
N434        N  0.60324177  0.73746335  0.54701398    -0.79700
C435        C  0.57656603  0.73927985  0.50041353     0.81100
N436        N  0.60345045  0.73815970  0.45389235    -0.79600
C437        C  0.65688307  0.73467280  0.45409659     0.81200
N438        N  0.68301399  0.73227124  0.50056728    -0.81300
C439        C  0.83961017  0.87485162  0.54694273     0.78600
N440        N  0.83846623  0.84860886  0.50028244    -0.79700
C441        C  0.83864291  0.87477954  0.45357755     0.81100
N442        N  0.83982412  0.92852364  0.45356251    -0.79600
C443        C  0.84123007  0.95562397  0.50019765     0.81200
N444        N  0.84068777  0.92858821  0.54687603    -0.81300
C445        C  0.59437048  0.59374283  0.74927403     0.78600
N446        N  0.59442792  0.54031850  0.75272254    -0.79700
C447        C  0.54782304  0.51363490  0.75452244     0.81100
N448        N  0.50130553  0.54051910  0.75352353    -0.79600
C449        C  0.50151115  0.59395450  0.75017906     0.81200
N450        N  0.54797531  0.62009834  0.74778480    -0.81300
C451        C  0.50103695  0.77554388  0.89038449     0.78600
N452        N  0.50108428  0.77664070  0.94413200    -0.79700
C453        C  0.54775810  0.77804614  0.97117305     0.81100
N454        N  0.59439592  0.77759283  0.94408034    -0.79600
C455        C  0.59439375  0.77659946  0.89034703     0.81200
N456        N  0.54770854  0.77544827  0.86415813    -0.81300
C457        C  0.79753031  0.43865202  0.60927422     0.78600
N458        N  0.79512525  0.48512535  0.63540832    -0.79700
C459        C  0.79669070  0.53151877  0.60905181     0.81100
N460        N  0.80022456  0.53155120  0.55562287    -0.79600
C461        C  0.80203293  0.48492406  0.52895379     0.81200
N462        N  0.80096183  0.43842653  0.55585101    -0.81300
C463        C  0.93774752  0.53153791  0.79192324     0.78600
N464        N  0.91153503  0.48486461  0.79073070    -0.79700
C465        C  0.93773761  0.43817870  0.79081062     0.81100
N466        N  0.99148397  0.43819466  0.79193343    -0.79600
C467        C  0.01855454  0.48484630  0.79337703     0.81200
N468        N  0.99148594  0.53150580  0.79293971    -0.81300
O469        O  0.85859244  0.74698356  0.91022405    -0.81700
O470        O  0.90705568  0.70206266  0.61678619    -0.83300
O471        O  0.93135588  0.62555862  0.78443666    -0.80300
O472        O  0.95761748  0.79574860  0.76227944    -0.78700
O473        O  0.90877040  0.86882535  0.74056617    -0.80500
O474        O  0.85632790  0.57509630  0.78376414    -0.81400
O475        O  0.95748225  0.70254074  0.69182368    -0.82700
O476        O  0.93166210  0.72520110  0.86139710    -0.83000
Eu477      Eu  0.90173375  0.71766976  0.76959751     2.39200
O478        O  0.86838340  0.76917256  0.69978082    -0.90500
O479        O  0.83197425  0.68433388  0.82098286    -0.94100
C480        C  0.90806121  0.73599086  0.90524119     1.00600
C481        C  0.95181525  0.69935499  0.64124064     0.96400
C482        C  0.90689169  0.58078554  0.78716277     1.00300
C483        C  0.95262732  0.84520885  0.75127575     0.98200
H484        H  0.86964675  0.63636161  0.70086714     0.27900
O485        O  0.84859825  0.66448637  0.71573492    -1.02900
H486        H  0.87288175  0.81013370  0.82552197     0.28000
O487        O  0.85086623  0.78808588  0.80349080    -1.05500
O488        O  0.73651146  0.72182041  0.59081865    -0.82700
O489        O  0.68837982  0.76898598  0.88396053    -0.82200
O490        O  0.78464799  0.57538235  0.68897138    -0.80700
O491        O  0.83190450  0.86852049  0.64095855    -0.84000
O492        O  0.80948779  0.89481928  0.81109952    -0.81900
O493        O  0.76498978  0.60134394  0.85959335    -0.80500
O494        O  0.63821911  0.67363276  0.73721413    -0.82000
O495        O  0.66414679  0.84420333  0.71745521    -0.83900
O496        O  0.68713776  0.60060322  0.75895865    -0.80700
O497        O  0.73918576  0.89463009  0.71783409    -0.83400
O498        O  0.80639781  0.62431191  0.61595763    -0.79100
O499        O  0.76540139  0.67636401  0.91005456    -0.79100
O500        O  0.78775949  0.84597753  0.88417599    -0.78800
O501        O  0.83132828  0.79346717  0.59053609    -0.82300
O502        O  0.66347635  0.74358534  0.63972001    -0.81700
O503        O  0.63793562  0.76845634  0.80891841    -0.80000
Eu504      Eu  0.81487434  0.71599937  0.64630622     2.39800
Eu505      Eu  0.78047301  0.75415006  0.85433744     2.39600
Eu506      Eu  0.77883640  0.63086838  0.76740700     2.38400
Eu507      Eu  0.81695863  0.83892245  0.73306345     2.39900
Eu508      Eu  0.69370150  0.75203694  0.73142525     2.39800
O509        O  0.74715304  0.80557311  0.78459372    -0.94400
O510        O  0.74483095  0.68201646  0.69741355    -0.93300
C511        C  0.68703162  0.73262891  0.59587562     1.00700
C512        C  0.64362133  0.77180052  0.85948592     0.99500
C513        C  0.79544221  0.58044829  0.63947885     0.98800
C514        C  0.83472315  0.84403191  0.59620342     1.00900
C515        C  0.79843264  0.88983125  0.86054525     0.99800
C516        C  0.76228482  0.62578327  0.90436115     0.98600
C517        C  0.64328494  0.62414607  0.74801045     0.98700
C518        C  0.68860389  0.88895789  0.71467997     1.01300
H519        H  0.69919534  0.68544856  0.82219564     0.28700
O520        O  0.72732582  0.70031149  0.80115144    -1.06600
H521        H  0.74829187  0.80680118  0.65175766     0.30700
O522        O  0.76313970  0.78575343  0.67989333    -1.09200
C523        C  0.50189558  0.37569973  0.25025301     0.78600
N524        N  0.54838118  0.34960029  0.25265285    -0.79700
C525        C  0.59475047  0.37599527  0.25109731     0.81100
N526        N  0.59475064  0.42942211  0.24758183    -0.79600
C527        C  0.54810723  0.45605625  0.24576826     0.81200
N528        N  0.50163015  0.42912412  0.24682902    -0.81300
C529        C  0.59469425  0.19312868  0.11009667     0.78600
N530        N  0.59463768  0.19217431  0.05636391    -0.79700
C531        C  0.54796578  0.19171858  0.02932856     0.81100
N532        N  0.50132434  0.19308726  0.05642309    -0.79600
C533        C  0.50133218  0.19414822  0.11016923     0.81200
N534        N  0.54803471  0.19424298  0.13634147    -0.81300
O535        O  0.85884224  0.22270930  0.09011468    -0.81700
O536        O  0.90736553  0.26761205  0.38362120    -0.83300
O537        O  0.93166630  0.34421166  0.21596031    -0.80300
O538        O  0.95802969  0.17405029  0.23815908    -0.78700
O539        O  0.90916815  0.10098991  0.25991025    -0.80500
O540        O  0.85662129  0.39464692  0.21656888    -0.81400
O541        O  0.95782953  0.26723429  0.30860267    -0.82700
O542        O  0.93190103  0.24452965  0.13895004    -0.83000
Eu543      Eu  0.90209808  0.25207095  0.23079356     2.39200
O544        O  0.86873428  0.20054073  0.30059505    -0.90500
O545        O  0.83236008  0.28536082  0.17934403    -0.94100
C546        C  0.90828999  0.23373894  0.09510847     1.00600
C547        C  0.95213814  0.27037504  0.35918944     1.00400
C548        C  0.90718566  0.38897609  0.21320805     1.00300
C549        C  0.95302657  0.12460465  0.24921249     0.98200
H550        H  0.86993926  0.33330955  0.29951246     0.27900
O551        O  0.84890305  0.30517724  0.28464303    -1.02900
H552        H  0.87327194  0.15960536  0.17486596     0.28000
O553        O  0.85124040  0.18164403  0.19688992    -1.05500
O554        O  0.73671618  0.24765379  0.40952339    -0.82700
O555        O  0.68870377  0.20070866  0.11642375    -0.82200
O556        O  0.78497268  0.39425993  0.31134142    -0.80700
O557        O  0.83220354  0.10114717  0.35942011    -0.84000
O558        O  0.80998721  0.07487143  0.18927218    -0.81900
O559        O  0.76534569  0.36835735  0.14073331    -0.80500
O560        O  0.63863474  0.29612412  0.26316700    -0.82000
O561        O  0.66447844  0.12550926  0.28281442    -0.83900
O562        O  0.68752658  0.36914292  0.24134633    -0.80700
O563        O  0.73950697  0.07506620  0.28245652    -0.83400
O564        O  0.80666623  0.34534525  0.38438550    -0.79100
O565        O  0.76573276  0.29333147  0.09028697    -0.79100
O566        O  0.78818190  0.12371111  0.11621519    -0.78800
O567        O  0.83159916  0.17618322  0.40986671    -0.82300
O568        O  0.66369421  0.22593610  0.36058914    -0.81700
O569        O  0.63827847  0.20127434  0.19147524    -0.80000
Eu570      Eu  0.81517451  0.25365650  0.35408429     2.39800
Eu571      Eu  0.78081756  0.21554174  0.14602772     2.39600
Eu572      Eu  0.77919485  0.33880495  0.23290943     2.38400
Eu573      Eu  0.81732631  0.13077995  0.26730429     2.39900
Eu574      Eu  0.69406093  0.21766827  0.26891879     2.39800
O575        O  0.74752135  0.16411873  0.21576791    -0.94400
O576        O  0.74518412  0.28767957  0.30293019    -0.93300
C577        C  0.68723247  0.23680963  0.40445969     1.00700
C578        C  0.64394846  0.19791827  0.14091267     0.99500
C579        C  0.79573229  0.38920019  0.36083902     0.98800
C580        C  0.83498637  0.12561805  0.40418889     1.00900
C581        C  0.79890564  0.07986273  0.13983332     0.99800
C582        C  0.76261036  0.34391553  0.09597017     0.98600
C583        C  0.64368421  0.34560805  0.25234385     0.98700
C584        C  0.68891872  0.08074806  0.28559304     1.01300
H585        H  0.69953216  0.28425760  0.17812583     0.28700
O586        O  0.72765834  0.26938884  0.19917201    -1.06600
H587        H  0.74861547  0.16284835  0.34856978     0.30700
O588        O  0.76347368  0.18391645  0.32045519    -1.09200
C589        C  0.50113447  0.37593369  0.74923257     0.78600
N590        N  0.50109197  0.42935243  0.75273728    -0.79700
C591        C  0.54770338  0.45602510  0.75448611     0.81100
N592        N  0.59421381  0.42913252  0.75337775    -0.79600
C593        C  0.59399139  0.37569911  0.74997098     0.81200
N594        N  0.54751984  0.34956832  0.74763183    -0.81300
C595        C  0.50121691  0.19316805  0.89021594     0.78600
N596        N  0.50128347  0.19218677  0.94394786    -0.79700
C597        C  0.54795837  0.19173634  0.97097718     0.81100
N598        N  0.59459381  0.19313361  0.94387695    -0.79600
C599        C  0.59457269  0.19421631  0.89013170     0.81200
N600        N  0.54786941  0.19430907  0.86396448    -0.81300
C601        C  0.65712904  0.23450127  0.54625394     0.78600
N602        N  0.68323289  0.23695130  0.49977123    -0.79700
C603        C  0.65684286  0.23540099  0.45339940     0.81100
N604        N  0.60341439  0.23182864  0.45340109    -0.79600
C605        C  0.57677946  0.22995715  0.50004756     0.81200
N606        N  0.60371031  0.23102831  0.54651875    -0.81300
C607        C  0.83981142  0.09477642  0.45344988     0.78600
N608        N  0.84080801  0.04103641  0.45350528    -0.79700
C609        C  0.84127625  0.01398939  0.50017961     0.81100
N610        N  0.83987748  0.04108095  0.54682034    -0.79600
C611        C  0.83877997  0.09482580  0.54681994     0.81200
N612        N  0.83867254  0.12100786  0.50011881    -0.81300
O613        O  0.85916984  0.22177793  0.90953063    -0.81700
O614        O  0.90720218  0.26908172  0.61647020    -0.83300
O615        O  0.95727298  0.17364799  0.76313879    -0.80300
O616        O  0.93129718  0.34422253  0.78280719    -0.78700
O617        O  0.85625789  0.39464791  0.78234594    -0.80500
O618        O  0.90835504  0.10059764  0.74146145    -0.81400
O619        O  0.95762281  0.26846453  0.69152223    -0.82700
O620        O  0.93217782  0.24358175  0.86061569    -0.83000
Eu621      Eu  0.90179550  0.25203258  0.76895062     2.39200
O622        O  0.84833731  0.30556543  0.71577759    -0.90500
O623        O  0.85068381  0.18199513  0.80295579    -0.94100
C624        C  0.90866098  0.23259061  0.90447056     1.00600
C625        C  0.95196038  0.27187183  0.64095896     1.00400
C626        C  0.95220895  0.12415713  0.75237294     1.00300
C627        C  0.90684072  0.38897980  0.78550364     0.98200
H628        H  0.89633653  0.18542590  0.67819434     0.27900
O629        O  0.86819571  0.20027610  0.69923460    -1.02900
H630        H  0.84724673  0.30682206  0.84859464     0.28000
O631        O  0.83237508  0.28576914  0.82047509    -1.05500
O632        O  0.73709449  0.24662614  0.59009881    -0.82700
O633        O  0.68851425  0.20222810  0.88364031    -0.82200
O634        O  0.83063920  0.10129525  0.64078080    -0.80700
O635        O  0.78564611  0.39478282  0.68925858    -0.84000
O636        O  0.76368004  0.36852218  0.85940037    -0.81900
O637        O  0.81062808  0.07539088  0.81142105    -0.80500
O638        O  0.66412789  0.12552968  0.71589566    -0.82000
O639        O  0.63786157  0.29569752  0.73798169    -0.83900
O640        O  0.73916165  0.07507583  0.71647375    -0.80700
O641        O  0.68668677  0.36875584  0.75980444    -0.83400
O642        O  0.83031476  0.17632283  0.59033232    -0.79100
O643        O  0.78891894  0.12434145  0.88443840    -0.79100
O644        O  0.76434411  0.29349481  0.90985773    -0.78800
O645        O  0.80742639  0.34594903  0.61618987    -0.82300
O646        O  0.66401526  0.22491664  0.63895100    -0.81700
O647        O  0.63806106  0.20256281  0.80861496    -0.80000
Eu648      Eu  0.81507991  0.25411489  0.64603819     2.39800
Eu649      Eu  0.78068975  0.21601772  0.85409125     2.39600
Eu650      Eu  0.81665456  0.13083587  0.73296466     2.38400
Eu651      Eu  0.77849715  0.33887869  0.76729364     2.39900
Eu652      Eu  0.69377392  0.21761922  0.73080042     2.39800
O653        O  0.72710315  0.26913667  0.80062214    -0.94400
O654        O  0.76354028  0.18431454  0.67940318    -0.93300
C655        C  0.68765068  0.23557296  0.59509528     1.00700
C656        C  0.64375132  0.19948003  0.85920161     0.99500
C657        C  0.83343689  0.12573856  0.59601710     0.98800
C658        C  0.79663683  0.38979299  0.63980184     1.00900
C659        C  0.76095456  0.34405540  0.90417128     0.99800
C660        C  0.79977749  0.08046605  0.86090250     0.98600
C661        C  0.68859492  0.08076423  0.71308438     0.98700
C662        C  0.64284523  0.34515300  0.74901616     1.01300
H663        H  0.72585283  0.13637203  0.79951614     0.28700
O664        O  0.74692633  0.16448654  0.78466531    -1.06600
H665        H  0.72259611  0.31001372  0.67482132     0.30700
O666        O  0.74463386  0.28800563  0.69686882    -1.09200
O667        O  0.23673537  0.22192320  0.09081479    -0.81700
O668        O  0.18873353  0.26913276  0.38388372    -0.83300
O669        O  0.13863072  0.17361996  0.23732607    -0.80300
O670        O  0.16454319  0.34423652  0.21759862    -0.78700
O671        O  0.23956493  0.39469138  0.21805126    -0.80500
O672        O  0.18753283  0.10059848  0.25911065    -0.81400
O673        O  0.13829903  0.26847417  0.30883964    -0.82700
O674        O  0.16371939  0.24370410  0.13973041    -0.83000
Eu675      Eu  0.19409461  0.25204775  0.23141095     2.39200
O676        O  0.24757614  0.30560754  0.28454809    -0.90500
O677        O  0.24519036  0.18200948  0.19739074    -0.94100
C678        C  0.18724877  0.23276482  0.09586830     1.00600
C679        C  0.14396978  0.27189437  0.35939836     1.00400
C680        C  0.14367618  0.12414099  0.24817961     1.00300
C681        C  0.18897579  0.38900877  0.21491449     0.98200
H682        H  0.19957541  0.18550535  0.32223486     0.27900
O683        O  0.22769917  0.20035805  0.30117447    -1.02900
H684        H  0.24865632  0.30683983  0.15178909     0.28000
O685        O  0.26352833  0.28578620  0.17990668    -1.05500
O686        O  0.35887775  0.24685411  0.41021205    -0.82700
O687        O  0.40737288  0.20218345  0.11666891    -0.82200
O688        O  0.26529085  0.10135059  0.35960992    -0.80700
O689        O  0.31032995  0.39485475  0.31113331    -0.84000
O690        O  0.33219137  0.36852929  0.14092340    -0.81900
O691        O  0.28510491  0.07545309  0.18905855    -0.80500
O692        O  0.43170801  0.12553971  0.28446766    -0.82000
O693        O  0.45805353  0.29570493  0.26227126    -0.83900
O694        O  0.35664249  0.07513329  0.28394630    -0.80700
O695        O  0.40921983  0.36876002  0.24044136    -0.83400
O696        O  0.26571587  0.17638756  0.41003599    -0.79100
O697        O  0.30687701  0.12434125  0.11601928    -0.79100
O698        O  0.33158221  0.29349173  0.09047301    -0.78800
O699        O  0.28851867  0.34601855  0.38418940    -0.82300
O700        O  0.43194011  0.22506838  0.36136607    -0.81700
O701        O  0.45783654  0.20253504  0.19168658    -0.80000
Eu702      Eu  0.28086554  0.25420707  0.35430943     2.39800
Eu703      Eu  0.31520480  0.21604162  0.14626671     2.39600
Eu704      Eu  0.27922009  0.13092951  0.26744613     2.38400
Eu705      Eu  0.31739462  0.33894492  0.23304410     2.39900
Eu706      Eu  0.40214760  0.21765221  0.26952548     2.39800
O707        O  0.36879024  0.26917682  0.19972267    -0.94400
O708        O  0.33239116  0.18439544  0.32096411    -0.93300
C709        C  0.40831790  0.23579267  0.40521555     1.00700
C710        C  0.45214303  0.19942983  0.14110002     0.99500
C711        C  0.26254552  0.12579890  0.40437023     0.98800
C712        C  0.29933644  0.38986163  0.36059733     1.00900
C713        C  0.33494259  0.34405391  0.09615943     0.99800
C714        C  0.29595425  0.08049632  0.13958355     0.98600
C715        C  0.40720628  0.08079501  0.28731746     0.98700
C716        C  0.45306091  0.34515153  0.25121625     1.01300
H717        H  0.37000834  0.13639061  0.20085496     0.28700
O718        O  0.34895627  0.16452333  0.21570288    -1.06600
H719        H  0.37335221  0.31008482  0.32546572     0.30700
O720        O  0.35130278  0.28806828  0.30343840    -1.09200
loop_ 
_geom_bond_atom_site_label_1 
_geom_bond_atom_site_label_2 
_geom_bond_distance 
_geom_bond_site_symmetry_2 
_ccdc_geom_bond_type 
C1            N2   1.355       .  A
C1            N6   1.351   1_556  A
C1          C312   1.458       .  S
N2            C3   1.360   1_556  A
C3            N4   1.360       .  A
C3           C51   1.458       .  S
N4            C5   1.355       .  A
C5            N6   1.351       .  A
C5          C168   1.459       .  S
C7            N8   1.355       .  A
C7           N12   1.361       .  A
C7          C204   1.477       .  S
N8            C9   1.355   1_554  A
C9           N10   1.360       .  A
C9          C347   1.475       .  S
N10          C11   1.365   1_556  A
C11          N12   1.366       .  A
C11          C69   1.477       .  S
C13          N14   1.351   1_554  A
C13          N18   1.355       .  A
C13         C546   1.458       .  S
N14          C15   1.351       .  A
C15          N16   1.355       .  A
C15         C624   1.458       .  S
N16          C17   1.360   1_656  A
C17          N18   1.360   1_455  A
C17          C65   1.458       .  S
C19          N20   1.360       .  A
C19          N24   1.355   1_556  A
C19         C659   1.476       .  S
N20          C21   1.365   1_556  A
C21          N22   1.365       .  A
C21          C59   1.477       .  S
N22          C23   1.360       .  A
C23          N24   1.355       .  A
C23         C582   1.476       .  S
C25          N26   1.355       .  A
C25          N30   1.351       .  A
C25         C390   1.458       .  S
N26          C27   1.360       .  A
C27          N28   1.360   1_565  A
C27          C75   1.458   1_554  S
N28          C29   1.355       .  A
C29          N30   1.351   1_545  A
C29         C581   1.458       .  S
C31          N32   1.355   1_545  A
C31          N36   1.361       .  A
C31         C584   1.477       .  S
N32          C33   1.355       .  A
C33          N34   1.360       .  A
C33         C425   1.475       .  S
N34          C35   1.365       .  A
C35          N36   1.366   1_565  A
C35          C93   1.477       .  S
C37          N38   1.355       .  A
C37          N42   1.351   1_545  A
C37         C234   1.459       .  S
N38          C39   1.360   1_545  A
C39          N40   1.360       .  A
C39          C89   1.458   1_556  S
N40          C41   1.355       .  A
C41          N42   1.351       .  A
C41         C348   1.458       .  S
C43          N44   1.355       .  A
C43          N48   1.360       .  A
C43         C349   1.476       .  S
N44          C45   1.355   1_565  A
C45          N46   1.360       .  A
C45         C270   1.476       .  S
N46          C47   1.365   1_545  A
C47          N48   1.365       .  A
C47          C81   1.477       .  S
C49          N50   1.355       .  A
C49          N54   1.351       .  A
C49         C392   1.458       .  S
N50          C51   1.360   1_655  A
C51          N52   1.360   1_454  A
N52          C53   1.355       .  A
C53          N54   1.351   1_556  A
C53         C480   1.459       .  S
C55          N56   1.355       .  A
C55          N60   1.360       .  A
C55         C391   1.476       .  S
N56          C57   1.355   1_554  A
C57          N58   1.360       .  A
C57         C516   1.476       .  S
N58          C59   1.365   1_556  A
C59          N60   1.365       .  A
C61          N62   1.351   1_556  A
C61          N66   1.355       .  A
C61         C237   1.458       .  S
N62          C63   1.351       .  A
C63          N64   1.355       .  A
C63         C678   1.459       .  S
N64          C65   1.360       .  A
C65          N66   1.360   1_554  A
C67          N68   1.361       .  A
C67          N72   1.355   1_556  A
C67         C235   1.477       .  S
N68          C69   1.366   1_556  A
C69          N70   1.365       .  A
N70          C71   1.360       .  A
C71          N72   1.355       .  A
C71         C713   1.475       .  S
C73          N74   1.355       .  A
C73          N78   1.351       .  A
C73         C515   1.458       .  S
N74          C75   1.360       .  A
C75          N76   1.360   1_565  A
N76          C77   1.355       .  A
C77          N78   1.351   1_545  A
C77         C660   1.458       .  S
C79          N80   1.360       .  A
C79          N84   1.355   1_545  A
C79         C661   1.476       .  S
N80          C81   1.365   1_545  A
C81          N82   1.365       .  A
N82          C83   1.360       .  A
C83          N84   1.355       .  A
C83         C518   1.476       .  S
C85          N86   1.351   1_545  A
C85          N90   1.355       .  A
C85         C714   1.458       .  S
N86          C87   1.351       .  A
C87          N88   1.355       .  A
C87         C203   1.458       .  S
N88          C89   1.360       .  A
C89          N90   1.360   1_565  A
C91          N92   1.361       .  A
C91          N96   1.355       .  A
C91         C206   1.477       .  S
N92          C93   1.366       .  A
C93          N94   1.365   1_565  A
N94          C95   1.360       .  A
C95          N96   1.355   1_545  A
C95         C715   1.475       .  S
C97          N98   1.351       .  A
C97         N102   1.355       .  A
C97         C626   1.458   1_455  S
N98          C99   1.351       .  A
C99         N100   1.355       .  A
C99         C269   1.459       .  S
N100        C101   1.360       .  A
C101        N102   1.360       .  A
C101        C111   1.458   1_545  S
C103        N104   1.360       .  A
C103        N108   1.355       .  A
C103        C625   1.476   1_455  S
N104        C105   1.365       .  A
C105        N106   1.366       .  A
C105        C141   1.477       .  S
N106        C107   1.361       .  A
C107        N108   1.355       .  A
C107        C272   1.477       .  S
C109        N110   1.355       .  A
C109        N114   1.351       .  A
C109        C314   1.458       .  S
N110        C111   1.360       .  A
C111        N112   1.360       .  A
N112        C113   1.355       .  A
C113        N114   1.351       .  A
C113        C483   1.458   1_455  S
C115        N116   1.361       .  A
C115        N120   1.355       .  A
C115        C481   1.477   1_455  S
N116        C117   1.366       .  A
C117        N118   1.365       .  A
C117        C129   1.477       .  S
N118        C119   1.360       .  A
C119        N120   1.355       .  A
C119        C313   1.476       .  S
C121        N122   1.355       .  A
C121        N126   1.351       .  A
C121        C171   1.458       .  S
N122        C123   1.360       .  A
C123        N124   1.360       .  A
C123        C135   1.458   1_565  S
N124        C125   1.355       .  A
C125        N126   1.351       .  A
C125        C426   1.458   1_455  S
C127        N128   1.361       .  A
C127        N132   1.355       .  A
C127        C169   1.477       .  S
N128        C129   1.366       .  A
C129        N130   1.365       .  A
N130        C131   1.360       .  A
C131        N132   1.355       .  A
C131        C427   1.476   1_455  S
C133        N134   1.355       .  A
C133        N138   1.351       .  A
C133        C549   1.458   1_455  S
N134        C135   1.360       .  A
C135        N136   1.360       .  A
N136        C137   1.355       .  A
C137        N138   1.351       .  A
C137        C680   1.458       .  S
C139        N140   1.360       .  A
C139        N144   1.355       .  A
C139        C679   1.476       .  S
N140        C141   1.365       .  A
C141        N142   1.366       .  A
N142        C143   1.361       .  A
C143        N144   1.355       .  A
C143        C547   1.477   1_455  S
C145        N146   1.355       .  A
C145        N150   1.351       .  A
C145        C201   1.458       .  S
N146        C147   1.360       .  A
C147        N148   1.360       .  A
C147        C291   1.458       .  S
N148        C149   1.355       .  A
C149        N150   1.351       .  A
C149        C712   1.459       .  S
C151        N152   1.355       .  A
C151        N156   1.361       .  A
C151        C681   1.477       .  S
N152        C153   1.355       .  A
C153        N154   1.360       .  A
C153        C170   1.475       .  S
N154        C155   1.365       .  A
C155        N156   1.366       .  A
C155        C365   1.477       .  S
O157        C168   1.289       .  A
O157       Eu193   2.437       .  S
O158        C169   1.293       .  A
O158       Eu192   2.475       .  S
O159        C170   1.293       .  A
O159       Eu165   2.477       .  S
O160        C171   1.288       .  A
O160       Eu165   2.436       .  S
O161        C171   1.289       .  A
O161       Eu195   2.451       .  S
O162        C170   1.290       .  A
O162       Eu194   2.450       .  S
O163        C169   1.291       .  A
O163       Eu165   2.452       .  S
O164        C168   1.289       .  A
O164       Eu165   2.451       .  S
Eu165       O175   2.360       .  S
Eu165       O167   2.349       .  S
Eu165       O166   2.352       .  S
Eu165       O173   2.340       .  S
O166       Eu195   2.350       .  S
O166       Eu192   2.340       .  S
O167       Eu193   2.352       .  S
O167       Eu194   2.340       .  S
H172        O173   0.965       .  S
O173       Eu194   2.356       .  S
O173       Eu192   2.348       .  S
H174        O175   0.966       .  S
O175       Eu193   2.360       .  S
O175       Eu195   2.360       .  S
O176        C199   1.288       .  A
O176       Eu192   2.435       .  S
O177        C200   1.293       .  A
O177       Eu193   2.477       .  S
O178        C201   1.288       .  A
O178       Eu194   2.435       .  S
O179        C202   1.293       .  A
O179       Eu195   2.477       .  S
O180        C203   1.289       .  A
O180       Eu195   2.437       .  S
O181        C204   1.293       .  A
O181       Eu194   2.474       .  S
O182        C205   1.288       .  A
O182       Eu196   2.436       .  S
O183        C206   1.293       .  A
O183       Eu196   2.475       .  S
O184        C205   1.290       .  A
O184       Eu194   2.453       .  S
O185        C206   1.291       .  A
O185       Eu195   2.452       .  S
O186        C201   1.290       .  A
O186       Eu192   2.454       .  S
O187        C204   1.291       .  A
O187       Eu193   2.452       .  S
O188        C203   1.289       .  A
O188       Eu193   2.450       .  S
O189        C202   1.291       .  A
O189       Eu192   2.451       .  S
O190        C199   1.290       .  A
O190       Eu196   2.453       .  S
O191        C200   1.291       .  A
O191       Eu196   2.451       .  S
Eu192       O210   2.356       .  S
Eu192       O198   2.357       .  S
Eu193       O197   2.350       .  S
Eu193       O208   2.340       .  S
Eu194       O208   2.348       .  S
Eu194       O198   2.357       .  S
Eu195       O197   2.352       .  S
Eu195       O210   2.340       .  S
Eu196       O197   2.340       .  S
Eu196       O208   2.356       .  S
Eu196       O210   2.349       .  S
Eu196       O198   2.357       .  S
C199        C277   1.458       .  S
C200        C377   1.475       .  S
C202        C285   1.476       .  S
C205        C369   1.458       .  S
H207        O208   0.965       .  S
H209        O210   0.965       .  S
C211        N212   1.351       .  A
C211        N216   1.355       .  A
C211        C709   1.458       .  S
N212        C213   1.351       .  A
C213        N214   1.355       .  A
C213        C271   1.459       .  S
N214        C215   1.360       .  A
C215        N216   1.360       .  A
C215        C605   1.458       .  S
C217        N218   1.361       .  A
C217        N222   1.355       .  A
C217        C711   1.477       .  S
N218        C219   1.366       .  A
C219        N220   1.365       .  A
C219        C287   1.477   1_545  S
N220        C221   1.360       .  A
C221        N222   1.355       .  A
C221        C266   1.475       .  S
O223        C234   1.289       .  A
O223       Eu259   2.438       .  S
O224        C235   1.293       .  A
O224       Eu258   2.475       .  S
O225        C236   1.293       .  A
O225       Eu231   2.477       .  S
O226        C237   1.288       .  A
O226       Eu231   2.436       .  S
O227        C237   1.289       .  A
O227       Eu261   2.451       .  S
O228        C236   1.290       .  A
O228       Eu260   2.451       .  S
O229        C235   1.291       .  A
O229       Eu231   2.452       .  S
O230        C234   1.289       .  A
O230       Eu231   2.451       .  S
Eu231       O241   2.360       .  S
Eu231       O233   2.349       .  S
Eu231       O232   2.352       .  S
Eu231       O239   2.340       .  S
O232       Eu261   2.350       .  S
O232       Eu258   2.340       .  S
O233       Eu259   2.352       .  S
O233       Eu260   2.340       .  S
C236        C595   1.475       .  S
H238        O239   0.965       .  S
O239       Eu260   2.357       .  S
O239       Eu258   2.349       .  S
H240        O241   0.966       .  S
O241       Eu259   2.359       .  S
O241       Eu261   2.360       .  S
O242        C265   1.288       .  A
O242       Eu258   2.435       .  S
O243        C266   1.293       .  A
O243       Eu259   2.478       .  S
O244        C267   1.288       .  A
O244       Eu260   2.435       .  S
O245        C268   1.293       .  A
O245       Eu261   2.477       .  S
O246        C269   1.289       .  A
O246       Eu261   2.437       .  S
O247        C270   1.293       .  A
O247       Eu260   2.475       .  S
O248        C271   1.288       .  A
O248       Eu262   2.436       .  S
O249        C272   1.293       .  A
O249       Eu262   2.475       .  S
O250        C271   1.290       .  A
O250       Eu260   2.453       .  S
O251        C272   1.291       .  A
O251       Eu261   2.452       .  S
O252        C267   1.290       .  A
O252       Eu258   2.453       .  S
O253        C270   1.291       .  A
O253       Eu259   2.451       .  S
O254        C269   1.289       .  A
O254       Eu259   2.451       .  S
O255        C268   1.291       .  A
O255       Eu258   2.452       .  S
O256        C265   1.290       .  A
O256       Eu262   2.453       .  S
O257        C266   1.290       .  A
O257       Eu262   2.451       .  S
Eu258       O276   2.356       .  S
Eu258       O264   2.357       .  S
Eu259       O263   2.349       .  S
Eu259       O274   2.340       .  S
Eu260       O274   2.348       .  S
Eu260       O264   2.357       .  S
Eu261       O263   2.352       .  S
Eu261       O276   2.340       .  S
Eu262       O263   2.341       .  S
Eu262       O274   2.356       .  S
Eu262       O276   2.349       .  S
Eu262       O264   2.357       .  S
C265        C289   1.458       .  S
C267        C589   1.458       .  S
C268        C295   1.476       .  S
H273        O274   0.965       .  S
H275        O276   0.965       .  S
C277        N278   1.355       .  A
C277        N282   1.351       .  A
N278        C279   1.360       .  A
C279        N280   1.360       .  A
C279        C435   1.458       .  S
N280        C281   1.355       .  A
C281        N282   1.351       .  A
C281        C343   1.458       .  S
C283        N284   1.355       .  A
C283        N288   1.361       .  A
C283        C345   1.477       .  S
N284        C285   1.355       .  A
C285        N286   1.360       .  A
N286        C287   1.365       .  A
C287        N288   1.366       .  A
C289        N290   1.355       .  A
C289        N294   1.351       .  A
N290        C291   1.360       .  A
C291        N292   1.360       .  A
N292        C293   1.355       .  A
C293        N294   1.351       .  A
C293        C346   1.459       .  S
C295        N296   1.360       .  A
C295        N300   1.355       .  A
N296        C297   1.365       .  A
C297        N298   1.366       .  A
C297        C467   1.477       .  S
N298        C299   1.360       .  A
C299        N300   1.355       .  A
C299        C315   1.477       .  S
O301        C312   1.288       .  A
O301       Eu337   2.435       .  S
O302        C313   1.293       .  A
O302       Eu336   2.477       .  S
O303        C314   1.288       .  A
O303       Eu309   2.435       .  S
O304        C315   1.293       .  A
O304       Eu309   2.475       .  S
O305        C315   1.291       .  A
O305       Eu339   2.452       .  S
O306        C314   1.290       .  A
O306       Eu338   2.453       .  S
O307        C313   1.291       .  A
O307       Eu309   2.452       .  S
O308        C312   1.290       .  A
O308       Eu309   2.453       .  S
Eu309       O319   2.349       .  S
Eu309       O311   2.357       .  S
Eu309       O310   2.340       .  S
Eu309       O317   2.356       .  S
O310       Eu339   2.352       .  S
O310       Eu336   2.350       .  S
O311       Eu337   2.357       .  S
O311       Eu338   2.357       .  S
H316        O317   0.965       .  S
O317       Eu338   2.349       .  S
O317       Eu336   2.340       .  S
H318        O319   0.965       .  S
O319       Eu337   2.356       .  S
O319       Eu339   2.340       .  S
O320        C343   1.289       .  A
O320       Eu336   2.437       .  S
O321        C344   1.293       .  A
O321       Eu337   2.474       .  S
O322        C345   1.293       .  A
O322       Eu338   2.475       .  S
O323        C346   1.289       .  A
O323       Eu339   2.437       .  S
O324        C347   1.293       .  A
O324       Eu339   2.477       .  S
O325        C348   1.288       .  A
O325       Eu338   2.435       .  S
O326        C349   1.293       .  A
O326       Eu340   2.477       .  S
O327        C350   1.289       .  A
O327       Eu340   2.437       .  S
O328        C349   1.291       .  A
O328       Eu338   2.451       .  S
O329        C350   1.289       .  A
O329       Eu339   2.451       .  S
O330        C345   1.291       .  A
O330       Eu336   2.452       .  S
O331        C348   1.290       .  A
O331       Eu337   2.453       .  S
O332        C347   1.290       .  A
O332       Eu337   2.451       .  S
O333        C346   1.289       .  A
O333       Eu336   2.451       .  S
O334        C343   1.289       .  A
O334       Eu340   2.450       .  S
O335        C344   1.291       .  A
O335       Eu340   2.452       .  S
Eu336       O354   2.360       .  S
Eu336       O342   2.352       .  S
Eu337       O341   2.340       .  S
Eu337       O352   2.349       .  S
Eu338       O352   2.356       .  S
Eu338       O342   2.340       .  S
Eu339       O341   2.349       .  S
Eu339       O354   2.360       .  S
Eu340       O341   2.352       .  S
Eu340       O352   2.340       .  S
Eu340       O354   2.360       .  S
Eu340       O342   2.349       .  S
C344        C451   1.476       .  S
C350        C449   1.458       .  S
H351        O352   0.965       .  S
H353        O354   0.966       .  S
C355        N356   1.351       .  A
C355        N360   1.355       .  A
C355        C421   1.458       .  S
N356        C357   1.351       .  A
C357        N358   1.355       .  A
C357        C579   1.458       .  S
N358        C359   1.360       .  A
C359        N360   1.360       .  A
C359        C461   1.458       .  S
C361        N362   1.355       .  A
C361        N366   1.361       .  A
C361        C423   1.477       .  S
N362        C363   1.355       .  A
C363        N364   1.360       .  A
C363        C548   1.476       .  S
N364        C365   1.365   1_655  A
C365        N366   1.366   1_455  A
C367        N368   1.351       .  A
C367        N372   1.355       .  A
C367        C424   1.458       .  S
N368        C369   1.351       .  A
C369        N370   1.355       .  A
N370        C371   1.360       .  A
C371        N372   1.360       .  A
C371        C527   1.458       .  S
C373        N374   1.361       .  A
C373        N378   1.355       .  A
C373        C393   1.476       .  S
N374        C375   1.366       .  A
C375        N376   1.365       .  A
C375        C453   1.477   1_554  S
N376        C377   1.360       .  A
C377        N378   1.355       .  A
O379        C390   1.288       .  A
O379       Eu415   2.436       .  S
O380        C391   1.293       .  A
O380       Eu414   2.477       .  S
O381        C392   1.288       .  A
O381       Eu387   2.434       .  S
O382        C393   1.293       .  A
O382       Eu387   2.474       .  S
O383        C393   1.291       .  A
O383       Eu417   2.452       .  S
O384        C392   1.290       .  A
O384       Eu416   2.453       .  S
O385        C391   1.291       .  A
O385       Eu387   2.452       .  S
O386        C390   1.290       .  A
O386       Eu387   2.453       .  S
Eu387       O397   2.349       .  S
Eu387       O389   2.357       .  S
Eu387       O388   2.340       .  S
Eu387       O395   2.356       .  S
O388       Eu417   2.353       .  S
O388       Eu414   2.349       .  S
O389       Eu415   2.357       .  S
O389       Eu416   2.357       .  S
H394        O395   0.965       .  S
O395       Eu416   2.349       .  S
O395       Eu414   2.340       .  S
H396        O397   0.965       .  S
O397       Eu415   2.356       .  S
O397       Eu417   2.340       .  S
O398        C421   1.288       .  A
O398       Eu414   2.436       .  S
O399        C422   1.293       .  A
O399       Eu415   2.475       .  S
O400        C423   1.293       .  A
O400       Eu416   2.475       .  S
O401        C424   1.288       .  A
O401       Eu417   2.436       .  S
O402        C425   1.293       .  A
O402       Eu417   2.478       .  S
O403        C426   1.288       .  A
O403       Eu416   2.436       .  S
O404        C427   1.293       .  A
O404       Eu418   2.477       .  S
O405        C428   1.289       .  A
O405       Eu418   2.438       .  S
O406        C427   1.291       .  A
O406       Eu416   2.452       .  S
O407        C428   1.289       .  A
O407       Eu417   2.451       .  S
O408        C423   1.291       .  A
O408       Eu414   2.452       .  S
O409        C426   1.290       .  A
O409       Eu415   2.453       .  S
O410        C425   1.290       .  A
O410       Eu415   2.450       .  S
O411        C424   1.289       .  A
O411       Eu414   2.451       .  S
O412        C421   1.289       .  A
O412       Eu418   2.451       .  S
O413        C422   1.291       .  A
O413       Eu418   2.452       .  S
Eu414       O432   2.360       .  S
Eu414       O420   2.352       .  S
Eu415       O419   2.341       .  S
Eu415       O430   2.348       .  S
Eu416       O430   2.356       .  S
Eu416       O420   2.340       .  S
Eu417       O419   2.349       .  S
Eu417       O432   2.360       .  S
Eu418       O419   2.352       .  S
Eu418       O430   2.340       .  S
Eu418       O432   2.359       .  S
Eu418       O420   2.349       .  S
C422        C441   1.477       .  S
C428        C437   1.459       .  S
H429        O430   0.965       .  S
H431        O432   0.966       .  S
C433        N434   1.355       .  A
C433        N438   1.351       .  A
C433        C511   1.458       .  S
N434        C435   1.360       .  A
C435        N436   1.360       .  A
N436        C437   1.355       .  A
C437        N438   1.351       .  A
C439        N440   1.355       .  A
C439        N444   1.360       .  A
C439        C514   1.476       .  S
N440        C441   1.355       .  A
C441        N442   1.360       .  A
N442        C443   1.365       .  A
C443        N444   1.365       .  A
C443        C609   1.477   1_565  S
C445        N446   1.355       .  A
C445        N450   1.351       .  A
C445        C517   1.458       .  S
N446        C447   1.360       .  A
C447        N448   1.360       .  A
C447        C591   1.458       .  S
N448        C449   1.355       .  A
C449        N450   1.351       .  A
C451        N452   1.360       .  A
C451        N456   1.355       .  A
N452        C453   1.366       .  A
C453        N454   1.365       .  A
N454        C455   1.360       .  A
C455        N456   1.355       .  A
C455        C512   1.475       .  S
C457        N458   1.351       .  A
C457        N462   1.355       .  A
C457        C658   1.458       .  S
N458        C459   1.351       .  A
C459        N460   1.355       .  A
C459        C513   1.459       .  S
N460        C461   1.360       .  A
C461        N462   1.360       .  A
C463        N464   1.355       .  A
C463        N468   1.360       .  A
C463        C482   1.476       .  S
N464        C465   1.355       .  A
C465        N466   1.360       .  A
C465        C627   1.476       .  S
N466        C467   1.365   1_655  A
C467        N468   1.365   1_455  A
O469        C480   1.289       .  A
O469       Eu505   2.438       .  S
O470        C481   1.293       .  A
O470       Eu504   2.475       .  S
O471        C482   1.293       .  A
O471       Eu477   2.477       .  S
O472        C483   1.289       .  A
O472       Eu477   2.437       .  S
O473        C483   1.289       .  A
O473       Eu507   2.451       .  S
O474        C482   1.291       .  A
O474       Eu506   2.451       .  S
O475        C481   1.291       .  A
O475       Eu477   2.452       .  S
O476        C480   1.289       .  A
O476       Eu477   2.451       .  S
Eu477       O487   2.360       .  S
Eu477       O479   2.349       .  S
Eu477       O478   2.352       .  S
Eu477       O485   2.340       .  S
O478       Eu507   2.349       .  S
O478       Eu504   2.340       .  S
O479       Eu505   2.352       .  S
O479       Eu506   2.340       .  S
H484        O485   0.965       .  S
O485       Eu506   2.356       .  S
O485       Eu504   2.348       .  S
H486        O487   0.966       .  S
O487       Eu505   2.359       .  S
O487       Eu507   2.360       .  S
O488        C511   1.288       .  A
O488       Eu504   2.434       .  S
O489        C512   1.293       .  A
O489       Eu505   2.477       .  S
O490        C513   1.288       .  A
O490       Eu506   2.436       .  S
O491        C514   1.293       .  A
O491       Eu507   2.477       .  S
O492        C515   1.288       .  A
O492       Eu507   2.437       .  S
O493        C516   1.293       .  A
O493       Eu506   2.475       .  S
O494        C517   1.288       .  A
O494       Eu508   2.435       .  S
O495        C518   1.293       .  A
O495       Eu508   2.475       .  S
O496        C517   1.290       .  A
O496       Eu506   2.453       .  S
O497        C518   1.291       .  A
O497       Eu507   2.452       .  S
O498        C513   1.290       .  A
O498       Eu504   2.454       .  S
O499        C516   1.291       .  A
O499       Eu505   2.451       .  S
O500        C515   1.289       .  A
O500       Eu505   2.450       .  S
O501        C514   1.291       .  A
O501       Eu504   2.451       .  S
O502        C511   1.290       .  A
O502       Eu508   2.453       .  S
O503        C512   1.291       .  A
O503       Eu508   2.452       .  S
Eu504       O522   2.356       .  S
Eu504       O510   2.357       .  S
Eu505       O509   2.349       .  S
Eu505       O520   2.340       .  S
Eu506       O520   2.349       .  S
Eu506       O510   2.357       .  S
Eu507       O509   2.352       .  S
Eu507       O522   2.340       .  S
Eu508       O509   2.340       .  S
Eu508       O520   2.356       .  S
Eu508       O522   2.349       .  S
Eu508       O510   2.357       .  S
H519        O520   0.965       .  S
H521        O522   0.965       .  S
C523        N524   1.351       .  A
C523        N528   1.355       .  A
C523        C716   1.458       .  S
N524        C525   1.351       .  A
C525        N526   1.355       .  A
C525        C583   1.458       .  S
N526        C527   1.360       .  A
C527        N528   1.360       .  A
C529        N530   1.360       .  A
C529        N534   1.355       .  A
C529        C578   1.475       .  S
N530        C531   1.365       .  A
C531        N532   1.366       .  A
C531        C597   1.477   1_554  S
N532        C533   1.360       .  A
C533        N534   1.355       .  A
C533        C710   1.477       .  S
O535        C546   1.288       .  A
O535       Eu571   2.436       .  S
O536        C547   1.293       .  A
O536       Eu570   2.475       .  S
O537        C548   1.293       .  A
O537       Eu543   2.478       .  S
O538        C549   1.288       .  A
O538       Eu543   2.437       .  S
O539        C549   1.289       .  A
O539       Eu573   2.451       .  S
O540        C548   1.290       .  A
O540       Eu572   2.451       .  S
O541        C547   1.291       .  A
O541       Eu543   2.452       .  S
O542        C546   1.289       .  A
O542       Eu543   2.451       .  S
Eu543       O553   2.360       .  S
Eu543       O545   2.349       .  S
Eu543       O544   2.352       .  S
Eu543       O551   2.340       .  S
O544       Eu573   2.349       .  S
O544       Eu570   2.340       .  S
O545       Eu571   2.353       .  S
O545       Eu572   2.340       .  S
H550        O551   0.965       .  S
O551       Eu572   2.356       .  S
O551       Eu570   2.349       .  S
H552        O553   0.966       .  S
O553       Eu571   2.360       .  S
O553       Eu573   2.360       .  S
O554        C577   1.288       .  A
O554       Eu570   2.436       .  S
O555        C578   1.293       .  A
O555       Eu571   2.477       .  S
O556        C579   1.288       .  A
O556       Eu572   2.435       .  S
O557        C580   1.293       .  A
O557       Eu573   2.478       .  S
O558        C581   1.288       .  A
O558       Eu573   2.436       .  S
O559        C582   1.293       .  A
O559       Eu572   2.475       .  S
O560        C583   1.288       .  A
O560       Eu574   2.435       .  S
O561        C584   1.293       .  A
O561       Eu574   2.475       .  S
O562        C583   1.290       .  A
O562       Eu572   2.453       .  S
O563        C584   1.291       .  A
O563       Eu573   2.452       .  S
O564        C579   1.290       .  A
O564       Eu570   2.453       .  S
O565        C582   1.291       .  A
O565       Eu571   2.452       .  S
O566        C581   1.289       .  A
O566       Eu571   2.450       .  S
O567        C580   1.291       .  A
O567       Eu570   2.452       .  S
O568        C577   1.290       .  A
O568       Eu574   2.453       .  S
O569        C578   1.290       .  A
O569       Eu574   2.451       .  S
Eu570       O588   2.356       .  S
Eu570       O576   2.357       .  S
Eu571       O575   2.349       .  S
Eu571       O586   2.340       .  S
Eu572       O586   2.349       .  S
Eu572       O576   2.357       .  S
Eu573       O575   2.352       .  S
Eu573       O588   2.340       .  S
Eu574       O575   2.340       .  S
Eu574       O586   2.356       .  S
Eu574       O588   2.349       .  S
Eu574       O576   2.357       .  S
C577        C603   1.458       .  S
C580        C607   1.476       .  S
H585        O586   0.965       .  S
H587        O588   0.965       .  S
C589        N590   1.355       .  A
C589        N594   1.351       .  A
N590        C591   1.360       .  A
C591        N592   1.360       .  A
N592        C593   1.355       .  A
C593        N594   1.351       .  A
C593        C662   1.458       .  S
C595        N596   1.360       .  A
C595        N600   1.355       .  A
N596        C597   1.365       .  A
C597        N598   1.365       .  A
N598        C599   1.360       .  A
C599        N600   1.355       .  A
C599        C656   1.476       .  S
C601        N602   1.351       .  A
C601        N606   1.355       .  A
C601        C655   1.458       .  S
N602        C603   1.351       .  A
C603        N604   1.355       .  A
N604        C605   1.360       .  A
C605        N606   1.360       .  A
C607        N608   1.360       .  A
C607        N612   1.355       .  A
N608        C609   1.365       .  A
C609        N610   1.365       .  A
N610        C611   1.360       .  A
C611        N612   1.355       .  A
C611        C657   1.477       .  S
O613        C624   1.288       .  A
O613       Eu649   2.436       .  S
O614        C625   1.293       .  A
O614       Eu648   2.478       .  S
O615        C626   1.288       .  A
O615       Eu621   2.435       .  S
O616        C627   1.293       .  A
O616       Eu621   2.475       .  S
O617        C627   1.291       .  A
O617       Eu651   2.451       .  S
O618        C626   1.290       .  A
O618       Eu650   2.453       .  S
O619        C625   1.291       .  A
O619       Eu621   2.451       .  S
O620        C624   1.290       .  A
O620       Eu621   2.453       .  S
Eu621       O631   2.349       .  S
Eu621       O623   2.357       .  S
Eu621       O622   2.340       .  S
Eu621       O629   2.356       .  S
O622       Eu651   2.353       .  S
O622       Eu648   2.349       .  S
O623       Eu649   2.357       .  S
O623       Eu650   2.357       .  S
H628        O629   0.965       .  S
O629       Eu650   2.349       .  S
O629       Eu648   2.340       .  S
H630        O631   0.965       .  S
O631       Eu649   2.356       .  S
O631       Eu651   2.340       .  S
O632        C655   1.288       .  A
O632       Eu648   2.436       .  S
O633        C656   1.293       .  A
O633       Eu649   2.474       .  S
O634        C657   1.293       .  A
O634       Eu650   2.475       .  S
O635        C658   1.288       .  A
O635       Eu651   2.436       .  S
O636        C659   1.293       .  A
O636       Eu651   2.477       .  S
O637        C660   1.288       .  A
O637       Eu650   2.436       .  S
O638        C661   1.293       .  A
O638       Eu652   2.477       .  S
O639        C662   1.289       .  A
O639       Eu652   2.437       .  S
O640        C661   1.291       .  A
O640       Eu650   2.452       .  S
O641        C662   1.289       .  A
O641       Eu651   2.451       .  S
O642        C657   1.291       .  A
O642       Eu648   2.452       .  S
O643        C660   1.290       .  A
O643       Eu649   2.453       .  S
O644        C659   1.290       .  A
O644       Eu649   2.451       .  S
O645        C658   1.289       .  A
O645       Eu648   2.451       .  S
O646        C655   1.289       .  A
O646       Eu652   2.450       .  S
O647        C656   1.291       .  A
O647       Eu652   2.452       .  S
Eu648       O666   2.360       .  S
Eu648       O654   2.353       .  S
Eu649       O653   2.340       .  S
Eu649       O664   2.349       .  S
Eu650       O664   2.356       .  S
Eu650       O654   2.340       .  S
Eu651       O653   2.349       .  S
Eu651       O666   2.360       .  S
Eu652       O653   2.352       .  S
Eu652       O664   2.340       .  S
Eu652       O666   2.359       .  S
Eu652       O654   2.349       .  S
H663        O664   0.965       .  S
H665        O666   0.966       .  S
O667        C678   1.288       .  A
O667       Eu703   2.436       .  S
O668        C679   1.293       .  A
O668       Eu702   2.478       .  S
O669        C680   1.288       .  A
O669       Eu675   2.436       .  S
O670        C681   1.293       .  A
O670       Eu675   2.475       .  S
O671        C681   1.291       .  A
O671       Eu705   2.452       .  S
O672        C680   1.290       .  A
O672       Eu704   2.453       .  S
O673        C679   1.290       .  A
O673       Eu675   2.451       .  S
O674        C678   1.290       .  A
O674       Eu675   2.453       .  S
Eu675       O685   2.349       .  S
Eu675       O677   2.357       .  S
Eu675       O676   2.340       .  S
Eu675       O683   2.356       .  S
O676       Eu705   2.352       .  S
O676       Eu702   2.349       .  S
O677       Eu703   2.357       .  S
O677       Eu704   2.357       .  S
H682        O683   0.965       .  S
O683       Eu704   2.349       .  S
O683       Eu702   2.340       .  S
H684        O685   0.965       .  S
O685       Eu703   2.356       .  S
O685       Eu705   2.340       .  S
O686        C709   1.288       .  A
O686       Eu702   2.436       .  S
O687        C710   1.293       .  A
O687       Eu703   2.475       .  S
O688        C711   1.293       .  A
O688       Eu704   2.475       .  S
O689        C712   1.289       .  A
O689       Eu705   2.437       .  S
O690        C713   1.293       .  A
O690       Eu705   2.477       .  S
O691        C714   1.288       .  A
O691       Eu704   2.435       .  S
O692        C715   1.293       .  A
O692       Eu706   2.477       .  S
O693        C716   1.288       .  A
O693       Eu706   2.437       .  S
O694        C715   1.290       .  A
O694       Eu704   2.451       .  S
O695        C716   1.289       .  A
O695       Eu705   2.450       .  S
O696        C711   1.291       .  A
O696       Eu702   2.452       .  S
O697        C714   1.290       .  A
O697       Eu703   2.453       .  S
O698        C713   1.290       .  A
O698       Eu703   2.451       .  S
O699        C712   1.289       .  A
O699       Eu702   2.451       .  S
O700        C709   1.289       .  A
O700       Eu706   2.451       .  S
O701        C710   1.291       .  A
O701       Eu706   2.452       .  S
Eu702       O720   2.360       .  S
Eu702       O708   2.352       .  S
Eu703       O707   2.340       .  S
Eu703       O718   2.349       .  S
Eu704       O718   2.356       .  S
Eu704       O708   2.340       .  S
Eu705       O707   2.350       .  S
Eu705       O720   2.360       .  S
Eu706       O707   2.352       .  S
Eu706       O718   2.340       .  S
Eu706       O720   2.360       .  S
Eu706       O708   2.349       .  S
H717        O718   0.965       .  S
H719        O720   0.966       .  S
