geometry optimzed in LAMMPS
_audit_creation_date              2020-11-30 
_audit_creation_method            'lammps2cif' 
_symmetry_space_group_name_H-M    'P1' 
_symmetry_Int_Tables_number       1 
_symmetry_cell_setting            triclinic 
loop_ 
_symmetry_equiv_pos_as_xyz 
  x,y,z 
_cell_length_a                    52.07098341 
_cell_length_b                    52.12896676970318 
_cell_length_c                    26.647848392435783 
_cell_angle_alpha                 90.82594413759028 
_cell_angle_beta                  90.07421490419003 
_cell_angle_gamma                 119.98684172449748 
loop_ 
_atom_site_label 
_atom_site_type_symbol 
_atom_site_fract_x 
_atom_site_fract_y 
_atom_site_fract_z 
_atom_site_charge 
O1          O  0.31330188  0.25161071  0.03547765    -0.78500
C2          C  0.25240203  0.25194513  0.14797781     0.82600
O3          O  0.21930674  0.17737801  0.97507204    -0.79600
O4          O  0.18893237  0.24813110  0.03318437    -0.81000
O5          O  0.28342822  0.32197519  0.97432049    -0.80800
O6          O  0.32557187  0.28812551  0.98208861    -0.79500
Zn7        Zn  0.26998259  0.23394058  0.05051415     1.55700
O8          O  0.25097093  0.31140891  0.03610860    -0.80900
Cd9        Cd  0.28363423  0.28214992  0.96501573     1.59700
Cd10       Cd  0.22069839  0.21748420  0.96326745     1.59600
O11         O  0.27412839  0.27019242  0.88955673    -0.80900
O12         O  0.25214283  0.24998117  0.00690180    -1.91400
Cd13       Cd  0.23334504  0.26721173  0.04991296     1.59900
O14         O  0.23061227  0.22792176  0.88839908    -0.80800
O15         O  0.23802753  0.26219093  0.12530594    -0.79500
C16         C  0.23346220  0.17116909  0.00720823     0.83100
C17         C  0.33270938  0.27282324  0.00972270     0.82700
O18         O  0.26605837  0.24117887  0.12395357    -0.78400
C19         C  0.26879158  0.32922349  0.00399284     0.83500
O20         O  0.25146271  0.19041886  0.03857982    -0.78500
C21         C  0.25233617  0.24902778  0.86584105     0.83700
C22         C  0.17088620  0.22747727  0.00373752     0.84000
O23         O  0.17904495  0.21288623  0.97559891    -0.80900
O24         O  0.31021733  0.25202318  0.53519127    -0.78500
C25         C  0.24947959  0.25090965  0.64790385     0.82600
O26         O  0.21704629  0.17999702  0.46837875    -0.79600
O27         O  0.18704685  0.24987749  0.53487898    -0.81000
O28         O  0.28234529  0.32405544  0.47603202    -0.80800
O29         O  0.32280564  0.28870775  0.48155889    -0.79500
Zn30       Zn  0.26692019  0.23401859  0.54854005     1.55700
O31         O  0.24829204  0.31319673  0.53533587    -0.80900
Cd32       Cd  0.28174455  0.28415623  0.46557847     1.59700
Cd33       Cd  0.21874169  0.22058262  0.46098166     1.59600
O34         O  0.27357871  0.27376075  0.38980567    -0.80900
O35         O  0.24994459  0.25172724  0.50646516    -1.91400
Cd36       Cd  0.23157047  0.26905254  0.55063889     1.59900
O37         O  0.22923811  0.23260121  0.38678246    -0.80800
O38         O  0.23668246  0.26319649  0.62611835    -0.79500
C39         C  0.23148094  0.17280274  0.49818745     0.83100
C40         C  0.32944026  0.27290284  0.50878034     0.82700
O41         O  0.26184756  0.23920018  0.62266655    -0.78400
C42         C  0.26700654  0.33110544  0.50423912     0.83500
O43         O  0.24962213  0.19096498  0.53074954    -0.78500
C44         C  0.25176583  0.25331760  0.36517739     0.83700
C45         C  0.16901258  0.22970248  0.50472556     0.84000
O46         O  0.17726374  0.21577995  0.47514545    -0.80900
O47         O  0.06244702  0.24875554  0.97070537    -0.78500
C48         C  0.00037312  0.24906757  0.85884529     0.82600
O49         O  0.04030960  0.32220371  0.03195577    -0.79600
O50         O  0.43789663  0.24802421  0.97986982    -0.81000
O51         O  0.46104920  0.17322696  0.03493373    -0.80800
O52         O  0.03937871  0.21466493  0.02892300    -0.79500
Zn53       Zn  0.03679981  0.26692639  0.95658956     1.55700
O54         O  0.43700883  0.18353048  0.97634703    -0.80900
Cd55       Cd  0.00259190  0.21885046  0.04402216     1.59700
Cd56       Cd  0.00235229  0.28172251  0.04360379     1.59600
O57         O  0.49917937  0.22479370  0.12516164    -0.80900
O58         O  0.00236947  0.24980284  0.00014437    -1.91400
Cd59       Cd  0.46316383  0.22844430  0.96356263     1.59900
O60         O  0.50097470  0.26856252  0.12545657    -0.80800
O61         O  0.47344994  0.23459908  0.88799376    -0.79500
C62         C  0.06156233  0.32943483  0.00138715     0.83100
C63         C  0.06117848  0.22886706  0.99961275     0.82700
O64         O  0.02507871  0.26127334  0.88254894    -0.78400
C65         C  0.43888032  0.16532035  0.00548252     0.83500
O66         O  0.06225358  0.31074935  0.97088706    -0.78500
C67         C  0.50013508  0.24685303  0.14834924     0.83700
C68         C  0.44116501  0.26893851  0.00938498     0.84000
O69         O  0.46396575  0.28298889  0.03768126    -0.80900
O70         O  0.47463089  0.23905071  0.62510327    -0.78500
C71         C  0.43867541  0.27066089  0.50712231     0.82600
O72         O  0.45775120  0.17739409  0.47590161    -0.79600
O73         O  0.99959446  0.27251805  0.38236171    -0.81000
O74         O  0.06163441  0.31410744  0.53032898    -0.80800
O75         O  0.02473472  0.26407589  0.61990892    -0.79500
Zn76       Zn  0.46305714  0.23312850  0.55130988     1.55700
O77         O  0.03720731  0.32403068  0.47205280    -0.80900
Cd78       Cd  0.03538755  0.26950886  0.54430621     1.59700
Cd79       Cd  0.49683635  0.21725444  0.46459548     1.59600
O80         O  0.06113343  0.25055598  0.52926566    -0.80900
O81         O  0.49737349  0.24956376  0.50770173    -1.91400
Cd82       Cd  0.49699934  0.28023622  0.46333011     1.59900
O83         O  0.03582566  0.21438716  0.47305860    -0.80800
O84         O  0.45993079  0.28413710  0.47658721    -0.79500
C85         C  0.43660347  0.17069200  0.50657167     0.83100
C86         C  0.49924237  0.25151805  0.64903006     0.82700
O87         O  0.43791295  0.25146382  0.53702770    -0.78400
C88         C  0.05960877  0.33213449  0.50104199     0.83500
O89         O  0.43666401  0.18955611  0.53750089    -0.78500
C90         C  0.05846154  0.22926325  0.50144093     0.83700
C91         C  0.00115712  0.25179670  0.35904300     0.84000
O92         O  0.00191093  0.23081231  0.38179581    -0.80900
O93         O  0.30889025  0.05648196  0.97235756    -0.78500
C94         C  0.24165387  0.99499637  0.86241051     0.82600
O95         O  0.21547759  0.03841206  0.03678323    -0.79600
O96         O  0.18800992  0.43999943  0.96300951    -0.81000
O97         O  0.28292830  0.46101765  0.02320763    -0.80800
O98         O  0.31981372  0.03354570  0.03148131    -0.79500
Zn99       Zn  0.26471206  0.03132225  0.95937066     1.55700
O100        O  0.25054346  0.44036241  0.95984761    -0.80900
Cd101      Cd  0.27820532  0.99644235  0.04525062     1.59700
Cd102      Cd  0.21713233  0.00000248  0.05001787     1.59600
O103        O  0.26930217  0.99570723  0.12160725    -0.80900
O104        O  0.24679640  0.99816070  0.00400455    -1.91400
Cd105      Cd  0.23243980  0.46661972  0.94801164     1.59900
O106        O  0.23029736  0.00218720  0.12436655    -0.80800
O107        O  0.23756386  0.47757305  0.87334849    -0.79500
C108        C  0.23012733  0.05879654  0.00537335     0.83100
C109        C  0.32751077  0.05525654  0.00189333     0.82700
O110        O  0.25748702  0.01944897  0.88590522    -0.78400
C111        C  0.26838221  0.43977448  0.99180906     0.83500
O112        O  0.24769792  0.05716192  0.97406743    -0.78500
C113        C  0.25054021  0.50114649  0.13615709     0.83700
C114        C  0.17061834  0.44087294  0.99563973     0.84000
O115        O  0.17884257  0.46271545  0.02628141    -0.80900
O116        O  0.24756067  0.44160464  0.52740356    -0.78500
C117        C  0.25413132  0.50736755  0.63796087     0.82600
O118        O  0.17701360  0.46427127  0.46821855    -0.79600
O119        O  0.24756496  0.06140908  0.53774356    -0.81000
O120        O  0.31899104  0.03816780  0.47800673    -0.80800
O121        O  0.28137136  0.46188256  0.46746290    -0.79500
Zn122      Zn  0.23243480  0.46935552  0.54250639     1.55700
O123        O  0.30934091  0.05992345  0.54222919    -0.80900
Cd124      Cd  0.28008749  0.50041755  0.45434083     1.59700
Cd125      Cd  0.21773155  0.50271947  0.45542036     1.59600
O126        O  0.26860964  0.99563450  0.39083500    -0.80900
O127        O  0.24985926  0.50280914  0.49790776    -1.91400
Cd128      Cd  0.26419426  0.03382242  0.55318415     1.59900
O129        O  0.22933387  0.00169827  0.38791622    -0.80800
O130        O  0.25636052  0.02116260  0.62691748    -0.79500
C131        C  0.16978844  0.44370531  0.50006944     0.83100
C132        C  0.26590255  0.44070961  0.49699274     0.82700
O133        O  0.24054802  0.48239651  0.61510650    -0.78400
C134        C  0.32699355  0.05948779  0.50961583     0.83500
O135        O  0.18857618  0.44418960  0.53118501    -0.78500
C136        C  0.24921480  0.99832012  0.36592685     0.83700
C137        C  0.22988273  0.06150541  0.50476540     0.84000
O138        O  0.21544856  0.03977826  0.47425879    -0.80900
C139        C  0.23009772  0.50633000  0.77173312    -0.01800
C140        C  0.24140485  0.99439803  0.80712195     0.07900
C141        C  0.26841430  0.00566948  0.78132168    -0.01900
C142        C  0.26870002  0.00581125  0.72873935    -0.01900
C143        C  0.24188475  0.99388490  0.70158311     0.08000
C144        C  0.23129436  0.50839915  0.71918043    -0.02100
Br145      Br  0.20139998  0.51228956  0.68279280    -0.00700
Br146      Br  0.19747252  0.50531815  0.80766655    -0.00700
Br147      Br  0.30577688  0.02049422  0.69375080    -0.00700
Br148      Br  0.30491017  0.01860964  0.81766908    -0.00700
C149        C  0.27686377  0.00993537  0.28360111    -0.01800
C150        C  0.24969302  0.99746053  0.30984917     0.07900
C151        C  0.22205719  0.48885041  0.27155327    -0.01900
C152        C  0.22265782  0.48923432  0.21858743    -0.01900
C153        C  0.25018768  0.99779902  0.20272706     0.08000
C154        C  0.27708320  0.00997939  0.23060164    -0.02100
Br155      Br  0.31491906  0.02781337  0.19740615    -0.00700
Br156      Br  0.31450523  0.02830490  0.31926630    -0.00700
Br157      Br  0.18508008  0.47231801  0.18302204    -0.00700
Br158      Br  0.18395397  0.47023749  0.30422538    -0.00700
C159        C  0.09692178  0.37916567  0.54498213    -0.01800
C160        C  0.08489806  0.36299284  0.49976757     0.07900
C161        C  0.09953446  0.37485796  0.45416193    -0.01900
C162        C  0.12708647  0.40138725  0.45433135    -0.01900
C163        C  0.13935288  0.41748002  0.49954486     0.08000
C164        C  0.12383829  0.40639907  0.54484946    -0.02100
Br165      Br  0.13961822  0.42808256  0.60728765    -0.00700
Br166      Br  0.07635517  0.36404821  0.60740594    -0.00700
Br167      Br  0.14996422  0.41290078  0.39360611    -0.00700
Br168      Br  0.08327425  0.35372048  0.39142313    -0.00700
C169        C  0.40295004  0.12250729  0.54779172    -0.01800
C170        C  0.41048663  0.14055111  0.50525729     0.07900
C171        C  0.39151767  0.13080958  0.46291812    -0.01900
C172        C  0.36488175  0.10345863  0.46348857    -0.01900
C173        C  0.35700049  0.08569367  0.50649035     0.08000
C174        C  0.37642576  0.09501219  0.54822318    -0.02100
Br175      Br  0.36695492  0.06985936  0.60560986    -0.00700
Br176      Br  0.42879229  0.13567329  0.60577142    -0.00700
Br177      Br  0.33806728  0.09161236  0.40672895    -0.00700
Br178      Br  0.40051454  0.15625415  0.40595349    -0.00700
C179        C  0.99793111  0.22535036  0.77527261    -0.01800
C180        C  0.00033515  0.24958958  0.80334655     0.07900
C181        C  0.50392175  0.27435840  0.78635165    -0.01900
C182        C  0.50439057  0.27563210  0.73349001    -0.01900
C183        C  0.49896806  0.25056814  0.70444835     0.08000
C184        C  0.99688697  0.22539279  0.72239362    -0.02100
Br185      Br  0.99186631  0.19150508  0.68404548    -0.00700
Br186      Br  0.99682555  0.19246267  0.80944361    -0.00700
Br187      Br  0.51193580  0.31145445  0.70075822    -0.00700
Br188      Br  0.50975291  0.30807508  0.82618235    -0.00700
C189        C  0.02919385  0.26064697  0.22541582    -0.01800
C190        C  0.49975266  0.24709209  0.20375147     0.07900
C191        C  0.47250561  0.23472727  0.22900621    -0.01900
C192        C  0.47196247  0.23536206  0.28184578    -0.01900
C193        C  0.00187296  0.25197438  0.30362349     0.08000
C194        C  0.02864712  0.26059706  0.27830464    -0.02100
Br195      Br  0.06468850  0.27318869  0.31621951    -0.00700
Br196      Br  0.06605653  0.27372934  0.19085973    -0.00700
Br197      Br  0.43464503  0.21921071  0.31611756    -0.00700
Br198      Br  0.43594213  0.21688282  0.19092827    -0.00700
C199        C  0.12152739  0.40436683  0.95704348    -0.01800
C200        C  0.14055990  0.41472175  0.99937291     0.07900
C201        C  0.13225540  0.39794552  0.04359471    -0.01900
C202        C  0.10536167  0.37086153  0.04527435    -0.01900
C203        C  0.08694436  0.36001523  0.00232161     0.08000
C204        C  0.09473561  0.37714365  0.95862778    -0.02100
Br205      Br  0.06848316  0.36329087  0.90105482    -0.00700
Br206      Br  0.13247584  0.42712445  0.89640238    -0.00700
Br207      Br  0.09504458  0.34739962  0.10518754    -0.00700
Br208      Br  0.15935274  0.40996351  0.09986275    -0.00700
C209        C  0.37034137  0.09627817  0.04956749    -0.01800
C210        C  0.35839813  0.08080299  0.00378580     0.07900
C211        C  0.37504145  0.09168310  0.95951964    -0.01900
C212        C  0.40251156  0.11831961  0.96068029    -0.01900
C213        C  0.41363418  0.13445423  0.00607337     0.08000
C214        C  0.39812756  0.12254660  0.05094313    -0.02100
Br215      Br  0.41375074  0.14316304  0.11419755    -0.00700
Br216      Br  0.34699439  0.08399618  0.10956798    -0.00700
Br217      Br  0.42540369  0.13243201  0.90013917    -0.00700
Br218      Br  0.36032394  0.07047895  0.89688834    -0.00700
C219        C  0.29413234  0.38674454  0.51171040    -0.01800
C220        C  0.26857224  0.35988978  0.49801686     0.07900
C221        C  0.24319653  0.36005726  0.47998381    -0.01900
C222        C  0.24256971  0.38665751  0.47913405    -0.01900
C223        C  0.26776500  0.41344034  0.49454846     0.08000
C224        C  0.29381147  0.41360458  0.50946686    -0.02100
Br225      Br  0.32832719  0.45041583  0.52944661    -0.00700
Br226      Br  0.32887362  0.38651078  0.53592166    -0.00700
Br227      Br  0.20709002  0.38630491  0.45647462    -0.00700
Br228      Br  0.20950524  0.32376379  0.45490110    -0.00700
C229        C  0.25549525  0.14245755  0.48539569    -0.01800
C230        C  0.22927504  0.14346761  0.49347301     0.07900
C231        C  0.20227020  0.11690715  0.50048039    -0.01900
C232        C  0.20202586  0.08972030  0.50359985    -0.01900
C233        C  0.22874154  0.08913411  0.49911681     0.08000
C234        C  0.25534811  0.11556242  0.48899421    -0.02100
Br235      Br  0.29194479  0.11516631  0.47944725    -0.00700
Br236      Br  0.29156493  0.17791945  0.46679864    -0.00700
Br237      Br  0.16564038  0.05378640  0.51767538    -0.00700
Br238      Br  0.16593468  0.11792225  0.50721291    -0.00700
C239        C  0.09617426  0.22198470  0.54780998    -0.01800
C240        C  0.08319290  0.22277810  0.50168950     0.07900
C241        C  0.09642674  0.22127175  0.45627089    -0.01900
C242        C  0.12407574  0.22242689  0.45703372    -0.01900
C243        C  0.13793058  0.22348998  0.50329715     0.08000
C244        C  0.12317664  0.22193210  0.54858928    -0.02100
Br245      Br  0.13992972  0.21982939  0.61219242    -0.00700
Br246      Br  0.07695118  0.22088964  0.61043057    -0.00700
Br247      Br  0.14433502  0.22620990  0.39440231    -0.00700
Br248      Br  0.07812188  0.21988405  0.39247529    -0.00700
C249        C  0.40125417  0.27870695  0.55313870    -0.01800
C250        C  0.41349112  0.27636236  0.50712928     0.07900
C251        C  0.39960446  0.27637254  0.46144183    -0.01900
C252        C  0.37257980  0.27639873  0.46200703    -0.01900
C253        C  0.35980037  0.27748923  0.50808107     0.08000
C254        C  0.37455790  0.27932980  0.55355658    -0.02100
Br255      Br  0.35797454  0.28229079  0.61679013    -0.00700
Br256      Br  0.42102804  0.28130237  0.61608464    -0.00700
Br257      Br  0.35131104  0.27111373  0.39959380    -0.00700
Br258      Br  0.41580470  0.27373082  0.39758111    -0.00700
C259        C  0.25497190  0.27540547  0.73276999    -0.01800
C260        C  0.25004256  0.25031323  0.70383098     0.07900
C261        C  0.24570174  0.22462014  0.72880405    -0.01900
C262        C  0.24728037  0.22447943  0.78164637    -0.01900
C263        C  0.25179986  0.24940189  0.81023635     0.08000
C264        C  0.25505732  0.27461642  0.78560273    -0.02100
Br265      Br  0.25781294  0.30758846  0.82432636    -0.00700
Br266      Br  0.26314211  0.31179482  0.70096078    -0.00700
Br267      Br  0.24434165  0.19036435  0.81474645    -0.00700
Br268      Br  0.23568922  0.18866858  0.69151219    -0.00700
C269        C  0.25933152  0.27869254  0.23026160    -0.01800
C270        C  0.25315605  0.25257423  0.20355716     0.07900
C271        C  0.24728482  0.22700313  0.23023316    -0.01900
C272        C  0.24780162  0.22764733  0.28305852    -0.01900
C273        C  0.25272092  0.25333919  0.30968004     0.08000
C274        C  0.25843637  0.27886069  0.28307711    -0.02100
Br275      Br  0.26351852  0.31370786  0.31857059    -0.00700
Br276      Br  0.27048591  0.31486306  0.19484643    -0.00700
Br277      Br  0.24319540  0.19363198  0.31887774    -0.00700
Br278      Br  0.23675749  0.19034539  0.19493484    -0.00700
C279        C  0.29684223  0.41220996  0.99567393    -0.01800
C280        C  0.26967044  0.41208333  0.99449837     0.07900
C281        C  0.24270307  0.38479618  0.99515395    -0.01900
C282        C  0.24291010  0.35802474  0.99507699    -0.01900
C283        C  0.26996364  0.35804632  0.99899560     0.08000
C284        C  0.29699151  0.38524245  0.99929530    -0.02100
Br285      Br  0.33406298  0.38575092  0.00684864    -0.00700
Br286      Br  0.33368820  0.44904489  0.98975004    -0.00700
Br287      Br  0.20570565  0.32120973  0.98643606    -0.00700
Br288      Br  0.20490341  0.38351117  0.99939471    -0.00700
C289        C  0.25701304  0.11350175  0.01030826    -0.01800
C290        C  0.22960431  0.08680276  0.00754267     0.07900
C291        C  0.20293171  0.08755897  0.00498816    -0.01900
C292        C  0.20377320  0.11508326  0.00483780    -0.01900
C293        C  0.23134842  0.14178645  0.00634458     0.08000
C294        C  0.25793479  0.14073470  0.00794828    -0.02100
Br295      Br  0.29624158  0.17646384  0.00324050    -0.00700
Br296      Br  0.29379472  0.11317948  0.01990690    -0.00700
Br297      Br  0.16719063  0.11598339  0.00382575    -0.00700
Br298      Br  0.16547026  0.05105373  0.99998550    -0.00700
C299        C  0.09914638  0.22185871  0.04645784    -0.01800
C300        C  0.08639340  0.22312586  0.00032847     0.07900
C301        C  0.09938540  0.22124683  0.95491038    -0.01900
C302        C  0.12653234  0.22138801  0.95556623    -0.01900
C303        C  0.13991485  0.22149089  0.00177440     0.08000
C304        C  0.12515735  0.21994397  0.04696343    -0.02100
Br305      Br  0.14057283  0.21502165  0.10993767    -0.00700
Br306      Br  0.08323231  0.22585434  0.10961832    -0.00700
Br307      Br  0.14642699  0.22425031  0.89302324    -0.00700
Br308      Br  0.07983601  0.21807853  0.89154406    -0.00700
C309        C  0.40739432  0.28361005  0.96755040    -0.01800
C310        C  0.41704315  0.27617345  0.01157804     0.07900
C311        C  0.40191176  0.27316401  0.05682540    -0.01900
C312        C  0.37534073  0.27411729  0.05688120    -0.01900
C313        C  0.36386191  0.27861093  0.01162118     0.08000
C314        C  0.38124268  0.28544222  0.96763577    -0.02100
Br315      Br  0.36935523  0.29626831  0.90648391    -0.00700
Br316      Br  0.43030874  0.29137211  0.90697501    -0.00700
Br317      Br  0.35515463  0.26960488  0.11986844    -0.00700
Br318      Br  0.41657032  0.26594805  0.11852421    -0.00700
O319        O  0.31263331  0.75105001  0.04102158    -0.78500
C320        C  0.25197875  0.75140106  0.15531889     0.82600
O321        O  0.21913900  0.67892291  0.97781128    -0.79600
O322        O  0.18616833  0.74558998  0.04305042    -0.81000
O323        O  0.28335878  0.82183821  0.98468774    -0.80800
O324        O  0.32346075  0.78633144  0.98520296    -0.79500
Zn325      Zn  0.26909613  0.73370225  0.05693639     1.55700
O326        O  0.24803892  0.80982713  0.04211433    -0.80900
Cd327      Cd  0.28232533  0.78213222  0.97271702     1.59700
Cd328      Cd  0.22008999  0.71864919  0.96895483     1.59600
O329        O  0.27308747  0.77241754  0.89704668    -0.80900
O330        O  0.25094747  0.74997347  0.01439318    -1.91400
Cd331      Cd  0.23131063  0.76607829  0.05813320     1.59900
O332        O  0.23014412  0.72972364  0.89468003    -0.80800
O333        O  0.23803219  0.76241566  0.13348168    -0.79500
C334        C  0.23294674  0.67205090  0.00943133     0.83100
C335        C  0.33098127  0.77116571  0.01224051     0.82700
O336        O  0.26480832  0.73992855  0.13073930    -0.78400
C337        C  0.26721302  0.82817323  0.01209038     0.83500
O338        O  0.25039347  0.69042373  0.04243974    -0.78500
C339        C  0.25172726  0.75125669  0.87283150     0.83700
C340        C  0.16905053  0.72599321  0.01108543     0.84000
O341        O  0.17832192  0.71321473  0.98105439    -0.80900
O342        O  0.31275888  0.75264351  0.54177936    -0.78500
C343        C  0.25028743  0.75145205  0.65511052     0.82600
O344        O  0.21676939  0.68147430  0.47722494    -0.79600
O345        O  0.18811158  0.75210044  0.54181177    -0.81000
O346        O  0.28355025  0.82356694  0.48287083    -0.80800
O347        O  0.32421072  0.78885786  0.48767556    -0.79500
Zn348      Zn  0.26890297  0.73492027  0.55612225     1.55700
O349        O  0.25154633  0.81445641  0.54527601    -0.80900
Cd350      Cd  0.28297682  0.78385896  0.47284074     1.59700
Cd351      Cd  0.21937494  0.72208028  0.46895917     1.59600
O352        O  0.27533742  0.77261613  0.39755725    -0.80900
O353        O  0.25120207  0.75229826  0.51440804    -1.91400
Cd354      Cd  0.23263047  0.76974723  0.55793263     1.59900
O355        O  0.22977373  0.73360890  0.39447503    -0.80800
O356        O  0.23652153  0.76247526  0.63265442    -0.79500
C357        C  0.23126170  0.67375824  0.50581202     0.83100
C358        C  0.33144505  0.77328521  0.51415633     0.82700
O359        O  0.26387512  0.74077698  0.63044356    -0.78400
C360        C  0.26990465  0.83168440  0.51309002     0.83500
O361        O  0.25040958  0.69149945  0.53776817    -0.78500
C362        C  0.25306703  0.75307069  0.37269544     0.83700
C363        C  0.16999084  0.73195799  0.51170364     0.84000
O364        O  0.17812669  0.71778233  0.48258081    -0.80900
O365        O  0.06069107  0.74637688  0.97787371    -0.78500
C366        C  0.00229064  0.74898078  0.86114503     0.82600
O367        O  0.03725252  0.81856521  0.03930450    -0.79600
O368        O  0.44043294  0.75248609  0.96877633    -0.81000
O369        O  0.46294634  0.68072380  0.02478296    -0.80800
O370        O  0.03507250  0.70922602  0.02979575    -0.79500
Zn371      Zn  0.03594682  0.76527922  0.96191309     1.55700
O372        O  0.44060042  0.68994606  0.96198572    -0.80900
Cd373      Cd  0.99863908  0.71451153  0.04392667     1.59700
Cd374      Cd  0.99929672  0.77794646  0.04686812     1.59600
O375        O  0.50366707  0.73250018  0.11288846    -0.80900
O376        O  0.00011296  0.74704363  0.00201289    -1.91400
Cd377      Cd  0.46708391  0.73502328  0.95077606     1.59900
O378        O  0.50295845  0.77504913  0.11380446    -0.80800
O379        O  0.47822706  0.74174750  0.87568248    -0.79500
C380        C  0.05946338  0.82664738  0.01075839     0.83100
C381        C  0.05815361  0.72485949  0.00383092     0.82700
O382        O  0.02637100  0.76090442  0.88675726    -0.78400
C383        C  0.44139785  0.67231549  0.99372726     0.83500
O384        O  0.06128262  0.80890936  0.97948296    -0.78500
C385        C  0.50354358  0.75392840  0.13641768     0.83700
C386        C  0.44257838  0.77317397  0.99761476     0.84000
O387        O  0.46564863  0.78874066  0.02472684    -0.80900
O388        O  0.47705600  0.73690101  0.61319432    -0.78500
C389        C  0.44027275  0.77060112  0.50025137     0.82600
O390        O  0.46428199  0.67959836  0.45945865    -0.79600
O391        O  0.99524339  0.76672445  0.38244112    -0.81000
O392        O  0.06005281  0.81255052  0.52751729    -0.80800
O393        O  0.02431882  0.76488412  0.62056786    -0.79500
Zn394      Zn  0.46559565  0.73239597  0.53900792     1.55700
O395        O  0.03560523  0.82006097  0.46585286    -0.80900
Cd396      Cd  0.03412272  0.76838806  0.54493496     1.59700
Cd397      Cd  0.50241073  0.72101556  0.45187805     1.59600
O398        O  0.05994123  0.74926707  0.53265363    -0.80900
O399        O  0.50015525  0.75159114  0.49585565    -1.91400
Cd400      Cd  0.49867397  0.78212008  0.45255379     1.59900
O401        O  0.03519645  0.71237022  0.47720620    -0.80800
O402        O  0.46105764  0.78467241  0.46903186    -0.79500
C403        C  0.44223502  0.67110205  0.48880511     0.83100
C404        C  0.50143381  0.75218543  0.63718950     0.82700
O405        O  0.43989813  0.75092405  0.52865286    -0.78400
C406        C  0.05797333  0.82918649  0.49517283     0.83500
O407        O  0.44063450  0.68869567  0.52076300    -0.78500
C408        C  0.05764306  0.72782473  0.50571003     0.83700
C409        C  0.99826045  0.74663475  0.36003621     0.84000
O410        O  0.00104403  0.72706712  0.38378549    -0.80900
O411        O  0.31279302  0.56160038  0.96832616    -0.78500
C412        C  0.25146356  0.50278964  0.85304843     0.82600
O413        O  0.21587364  0.53907529  0.02553164    -0.79600
O414        O  0.18251071  0.93671686  0.98056219    -0.81000
O415        O  0.27765895  0.95697259  0.03038301    -0.80800
O416        O  0.32398160  0.53844186  0.02665701    -0.79500
Zn417      Zn  0.26920952  0.53636705  0.95279049     1.55700
O418        O  0.24476007  0.93676999  0.96792686    -0.80900
Cd419      Cd  0.28217972  0.50028667  0.03743154     1.59700
Cd420      Cd  0.21942518  0.50166283  0.03728129     1.59600
O421        O  0.27057716  0.49871046  0.11278459    -0.80900
O422        O  0.25117833  0.50171179  0.99407765    -1.91400
Cd423      Cd  0.22582784  0.96239224  0.96023983     1.59900
O424        O  0.23075306  0.50377032  0.11229286    -0.80800
O425        O  0.22678543  0.97084017  0.88536587    -0.79500
C426        C  0.23164041  0.56097445  0.99753844     0.83100
C427        C  0.33146549  0.56042584  0.99771569     0.82700
O428        O  0.26452482  0.52673894  0.87878151    -0.78400
C429        C  0.26300926  0.93603814  0.99873068     0.83500
O430        O  0.25102765  0.56121603  0.96823128    -0.78500
C431        C  0.25009118  0.99877635  0.14652385     0.83700
C432        C  0.16613120  0.93899112  0.01354091     0.84000
O433        O  0.17533256  0.96169002  0.04253715    -0.80900
O434        O  0.24608539  0.93775427  0.53341983    -0.78500
C435        C  0.24274521  0.99568777  0.64662358     0.82600
O436        O  0.17489275  0.96286866  0.47024672    -0.79600
O437        O  0.25184669  0.56609199  0.52366961    -0.81000
O438        O  0.32221810  0.53822037  0.46261946    -0.80800
O439        O  0.28394365  0.96279590  0.48175262    -0.79500
Zn440      Zn  0.22751184  0.96290558  0.54651134     1.55700
O441        O  0.31486043  0.56491428  0.52112870    -0.80900
Cd442      Cd  0.27905576  0.99896303  0.46642850     1.59700
Cd443      Cd  0.21668852  0.00070416  0.46208990     1.59600
O444        O  0.26772202  0.49763245  0.37999006    -0.80900
O445        O  0.24652085  0.99863541  0.50721241    -1.91400
Cd446      Cd  0.27033554  0.54014698  0.53881023     1.59900
O447        O  0.22852626  0.50382966  0.37957330    -0.80800
O448        O  0.26684473  0.53176881  0.61477678    -0.79500
C449        C  0.16674158  0.94026220  0.49778638     0.83100
C450        C  0.26779378  0.94014185  0.50792841     0.82700
O451        O  0.23064659  0.97188628  0.62040282    -0.78400
C452        C  0.33162665  0.56148051  0.49028046     0.83500
O453        O  0.18446919  0.93815594  0.52809169    -0.78500
C454        C  0.24814286  0.50062347  0.35622383     0.83700
C455        C  0.23060741  0.56360030  0.49629740     0.84000
O456        O  0.21431054  0.54043283  0.46974074    -0.80900
C457        C  0.21440564  0.98139474  0.77990112    -0.01800
C458        C  0.25245170  0.50436455  0.79812589     0.07900
C459        C  0.27589578  0.50422679  0.77207823    -0.01900
C460        C  0.27702858  0.50617878  0.71945444    -0.01900
C461        C  0.25449190  0.50785370  0.69303586     0.08000
C462        C  0.21465835  0.98063147  0.72709030    -0.02100
Br463      Br  0.17778186  0.96173081  0.68984693    -0.00700
Br464      Br  0.17713842  0.96572028  0.81456195    -0.00700
Br465      Br  0.30947594  0.50685901  0.68345555    -0.00700
Br466      Br  0.30583886  0.50044650  0.80855813    -0.00700
C467        C  0.27594227  0.51211693  0.27396545    -0.01800
C468        C  0.24871352  0.50059359  0.29993264     0.07900
C469        C  0.22280079  0.98408198  0.28200462    -0.01900
C470        C  0.22304659  0.98428381  0.22910872    -0.01900
C471        C  0.24989320  0.50080927  0.19252989     0.08000
C472        C  0.27654190  0.51206278  0.22099084    -0.02100
Br473      Br  0.31472549  0.52890648  0.18866382    -0.00700
Br474      Br  0.31348391  0.52949010  0.30986446    -0.00700
Br475      Br  0.18544688  0.96390882  0.19362771    -0.00700
Br476      Br  0.18495669  0.96347700  0.31550625    -0.00700
C477        C  0.08856667  0.88076170  0.52931901    -0.01800
C478        C  0.08305480  0.85969710  0.49099385     0.07900
C479        C  0.10370019  0.86659470  0.45211540    -0.01900
C480        C  0.13060343  0.89371973  0.45331958    -0.01900
C481        C  0.13656662  0.91447088  0.49246612     0.08000
C482        C  0.11524822  0.90817363  0.52997423    -0.02100
Br483      Br  0.12312638  0.93659790  0.58321529    -0.00700
Br484      Br  0.05967787  0.87155663  0.58137124    -0.00700
Br485      Br  0.16070335  0.90118026  0.40432725    -0.00700
Br486      Br  0.09608429  0.83798549  0.39913365    -0.00700
C487        C  0.41015762  0.62071551  0.52481078    -0.01800
C488        C  0.41693202  0.64037730  0.48470249     0.07900
C489        C  0.39746351  0.63181679  0.44306357    -0.01900
C490        C  0.37013520  0.60504753  0.44368877    -0.01900
C491        C  0.36247779  0.58625192  0.48527827     0.08000
C492        C  0.38308964  0.59359959  0.52490370    -0.02100
Br493      Br  0.37397989  0.56651799  0.57937572    -0.00700
Br494      Br  0.43805741  0.63114114  0.57956570    -0.00700
Br495      Br  0.34202636  0.59548747  0.38958693    -0.00700
Br496      Br  0.40728432  0.65775777  0.38660594    -0.00700
C497        C  0.99252448  0.72318569  0.77740737    -0.01800
C498        C  0.00345730  0.74977303  0.80553694     0.07900
C499        C  0.50492971  0.77790860  0.77212285    -0.01900
C500        C  0.50410779  0.77718752  0.71923846    -0.01900
C501        C  0.50151740  0.75242996  0.69260299     0.08000
C502        C  0.99077865  0.72334078  0.72460080    -0.02100
Br503      Br  0.97617725  0.68678117  0.68668811    -0.00700
Br504      Br  0.98194118  0.68682997  0.81129451    -0.00700
Br505      Br  0.50600426  0.80985984  0.68300571    -0.00700
Br506      Br  0.50740272  0.81131063  0.80857864    -0.00700
C507        C  0.02473982  0.75283856  0.22575118    -0.01800
C508        C  0.50337683  0.75387647  0.19189841     0.07900
C509        C  0.47655736  0.74435708  0.21753407    -0.01900
C510        C  0.47599942  0.74341334  0.27035007    -0.01900
C511        C  0.99839834  0.74603113  0.30459037     0.08000
C512        C  0.02470661  0.75342995  0.27859848    -0.02100
Br513      Br  0.06107209  0.76602485  0.31526374    -0.00700
Br514      Br  0.06073098  0.76287602  0.19021188    -0.00700
Br515      Br  0.43894568  0.72907400  0.30486870    -0.00700
Br516      Br  0.44048257  0.73223192  0.17999259    -0.00700
C517        C  0.11449353  0.90652785  0.98159141    -0.01800
C518        C  0.13616604  0.91327874  0.01909303     0.07900
C519        C  0.13128866  0.89236280  0.05620775    -0.01900
C520        C  0.10553249  0.86429832  0.05439767    -0.01900
C521        C  0.08454542  0.85711688  0.01556731     0.08000
C522        C  0.08860691  0.87849177  0.97999052    -0.02100
Br523      Br  0.05899119  0.86895701  0.92854630    -0.00700
Br524      Br  0.12092454  0.93538659  0.93145910    -0.00700
Br525      Br  0.09999023  0.83480827  0.10285970    -0.00700
Br526      Br  0.16114390  0.90115989  0.10690563    -0.00700
C527        C  0.37338193  0.60393421  0.04276181    -0.01800
C528        C  0.36218732  0.58623047  0.99882597     0.07900
C529        C  0.37855878  0.59584886  0.95401931    -0.01900
C530        C  0.40513578  0.62342843  0.95265169    -0.01900
C531        C  0.41561416  0.64170812  0.99614713     0.08000
C532        C  0.39970821  0.63167500  0.04130391    -0.02100
Br533      Br  0.41191047  0.65745776  0.09993268    -0.00700
Br534      Br  0.35138763  0.59149979  0.10425628    -0.00700
Br535      Br  0.42702953  0.63624395  0.89089780    -0.00700
Br536      Br  0.36454237  0.57103276  0.89437058    -0.00700
C537        C  0.28891827  0.88335875  0.54529862    -0.01800
C538        C  0.27346046  0.86128891  0.50832459     0.07900
C539        C  0.25839055  0.86628606  0.46914719    -0.01900
C540        C  0.25792724  0.89295663  0.46791280    -0.01900
C541        C  0.27253111  0.91465810  0.50577806     0.08000
C542        C  0.28855978  0.91017716  0.54390804    -0.02100
Br543      Br  0.30919841  0.94041105  0.59470648    -0.00700
Br544      Br  0.30980098  0.87632664  0.59826124    -0.00700
Br545      Br  0.23568202  0.89910314  0.41609561    -0.00700
Br546      Br  0.23627473  0.83554687  0.41950528    -0.00700
C547        C  0.25168905  0.64276285  0.47509084    -0.01800
C548        C  0.22830772  0.64439470  0.49839517     0.07900
C549        C  0.20327293  0.61841436  0.51511937    -0.01900
C550        C  0.20290951  0.59113573  0.51256086    -0.01900
C551        C  0.22734185  0.59000714  0.49220530     0.08000
C552        C  0.25098266  0.61558334  0.47137156    -0.02100
Br553      Br  0.28239117  0.61321547  0.43700938    -0.00700
Br554      Br  0.28487513  0.67797191  0.44822241    -0.00700
Br555      Br  0.16984420  0.55587879  0.53885591    -0.00700
Br556      Br  0.17026136  0.62062505  0.54295528    -0.00700
C557        C  0.09515351  0.72064568  0.55268541    -0.01800
C558        C  0.08288672  0.72222657  0.50639835     0.07900
C559        C  0.09763624  0.72322081  0.46145400    -0.01900
C560        C  0.12567753  0.72532084  0.46301302    -0.01900
C561        C  0.13892648  0.72580216  0.50962675     0.08000
C562        C  0.12315693  0.72268266  0.55440965    -0.02100
Br563      Br  0.13989654  0.72156948  0.61855677    -0.00700
Br564      Br  0.07322146  0.71519944  0.61385037    -0.00700
Br565      Br  0.14719153  0.73113496  0.40118878    -0.00700
Br566      Br  0.08075415  0.72418148  0.39754669    -0.00700
C567        C  0.40661837  0.78306009  0.54888210    -0.01800
C568        C  0.41509547  0.77621973  0.50256082     0.07900
C569        C  0.39791540  0.77230670  0.45911653    -0.01900
C570        C  0.37139460  0.77318374  0.46262158    -0.01900
C571        C  0.36166320  0.77757988  0.50973690     0.08000
C572        C  0.37977121  0.78337927  0.55259525    -0.02100
Br573      Br  0.36799180  0.79224693  0.61613045    -0.00700
Br574      Br  0.43237322  0.79302259  0.60679037    -0.00700
Br575      Br  0.34729675  0.76596454  0.40307895    -0.00700
Br576      Br  0.40929407  0.76337023  0.39518097    -0.00700
C577        C  0.25102879  0.77499351  0.73931719    -0.01800
C578        C  0.25058395  0.75138909  0.71116623     0.07900
C579        C  0.25045461  0.72775393  0.73722870    -0.01900
C580        C  0.25183133  0.72834779  0.79005613    -0.01900
C581        C  0.25186500  0.75160852  0.81751127     0.08000
C582        C  0.25127924  0.77479695  0.79217870    -0.02100
Br583      Br  0.24968544  0.80583805  0.83030517    -0.00700
Br584      Br  0.25221102  0.80857639  0.70695512    -0.00700
Br585      Br  0.25494173  0.69779680  0.82521235    -0.00700
Br586      Br  0.24617790  0.69314712  0.70193582    -0.00700
C587        C  0.26603036  0.77915390  0.23728086    -0.01800
C588        C  0.25326479  0.75193483  0.21070092     0.07900
C589        C  0.24174372  0.72524922  0.23706123    -0.01900
C590        C  0.24239429  0.72566869  0.28989989    -0.01900
C591        C  0.25423515  0.75288701  0.31692453     0.08000
C592        C  0.26683228  0.77974491  0.29014918    -0.02100
Br593      Br  0.28488482  0.81773546  0.32477686    -0.00700
Br594      Br  0.28309953  0.81583220  0.20096478    -0.00700
Br595      Br  0.22864660  0.68875823  0.32453961    -0.00700
Br596      Br  0.22373075  0.68785044  0.20070143    -0.00700
C597        C  0.29278664  0.91025806  0.00810247    -0.01800
C598        C  0.26531424  0.90890450  0.99920871     0.07900
C599        C  0.23932128  0.88098612  0.99180162    -0.01900
C600        C  0.24102385  0.85507435  0.99228504    -0.01900
C601        C  0.26782482  0.85633852  0.00530190     0.08000
C602        C  0.29384081  0.88388127  0.01249073    -0.02100
Br603      Br  0.33054511  0.88544775  0.03004995    -0.00700
Br604      Br  0.32915059  0.94791509  0.01246326    -0.00700
Br605      Br  0.20661883  0.81763424  0.97266765    -0.00700
Br606      Br  0.20029248  0.87683397  0.98535175    -0.00700
C607        C  0.25736057  0.61530477  0.00879671    -0.01800
C608        C  0.23033262  0.58851570  0.00216598     0.07900
C609        C  0.20347601  0.58893171  0.99861963    -0.01900
C610        C  0.20388337  0.61623087  0.00105581    -0.01900
C611        C  0.23121736  0.64299668  0.00574951     0.08000
C612        C  0.25796051  0.64235326  0.00756111    -0.02100
Br613      Br  0.29603908  0.67843446  0.00356602    -0.00700
Br614      Br  0.29382459  0.61533771  0.02365463    -0.00700
Br615      Br  0.16711753  0.61682124  0.99852538    -0.00700
Br616      Br  0.16636259  0.55246625  0.98955877    -0.00700
C617        C  0.09329957  0.71248207  0.04938706    -0.01800
C618        C  0.08329265  0.71882464  0.00420623     0.07900
C619        C  0.09933215  0.72219928  0.95961788    -0.01900
C620        C  0.12692654  0.72337334  0.96136514    -0.01900
C621        C  0.13792785  0.71935645  0.00720753     0.08000
C622        C  0.12015582  0.71200359  0.05031583    -0.02100
Br623      Br  0.13250634  0.70055844  0.11029944    -0.00700
Br624      Br  0.07204589  0.70663845  0.11137908    -0.00700
Br625      Br  0.15056013  0.73290451  0.90135858    -0.00700
Br626      Br  0.08333230  0.72456803  0.89543919    -0.00700
C627        C  0.39952143  0.77423622  0.95703245    -0.01800
C628        C  0.41666902  0.77791080  0.00068333     0.07900
C629        C  0.40672876  0.78249608  0.04769419    -0.01900
C630        C  0.37919886  0.78146888  0.05118761    -0.01900
C631        C  0.36135033  0.77580244  0.00805748     0.08000
C632        C  0.37178654  0.77260863  0.96088223    -0.02100
Br633      Br  0.34689152  0.76314664  0.90170837    -0.00700
Br634      Br  0.41394053  0.77185888  0.89119881    -0.00700
Br635      Br  0.36572698  0.78765167  0.11535172    -0.00700
Br636      Br  0.42937744  0.78833247  0.10852206    -0.00700
O637        O  0.81566925  0.25620074  0.03754190    -0.78500
C638        C  0.75568948  0.25871731  0.14801103     0.82600
O639        O  0.72266361  0.18256471  0.97321679    -0.79600
O640        O  0.69055418  0.25238073  0.03703307    -0.81000
O641        O  0.78693746  0.32457992  0.96900209    -0.80800
O642        O  0.82627549  0.28846207  0.97629875    -0.79500
Zn643      Zn  0.77206227  0.23841567  0.05117463     1.55700
O644        O  0.75271285  0.31583800  0.02720671    -0.80900
Cd645      Cd  0.78506550  0.28404502  0.96252251     1.59700
Cd646      Cd  0.72161087  0.22154477  0.96501292     1.59600
O647        O  0.77429999  0.27118669  0.88817596    -0.80900
O648        O  0.75383553  0.25398796  0.00717979    -1.91400
Cd649      Cd  0.73591911  0.27278990  0.04897826     1.59900
O650        O  0.72874663  0.23183139  0.88945489    -0.80800
O651        O  0.74313380  0.27082817  0.12500966    -0.79500
C652        C  0.73744563  0.17632826  0.00393874     0.83100
C653        C  0.83393814  0.27487385  0.00688560     0.82700
O654        O  0.76738262  0.24583622  0.12415856    -0.78400
C655        C  0.77159055  0.33256394  0.99512814     0.83500
O656        O  0.75482943  0.19499215  0.03676805    -0.78500
C657        C  0.75108575  0.25129987  0.86563329     0.83700
C658        C  0.67191382  0.23025056  0.01060513     0.84000
O659        O  0.67990916  0.21530218  0.98301177    -0.80900
O660        O  0.81201977  0.25394416  0.53572669    -0.78500
C661        C  0.75035015  0.25230553  0.64818232     0.82600
O662        O  0.71882233  0.18293315  0.46721346    -0.79600
O663        O  0.68643574  0.25003011  0.53707742    -0.81000
O664        O  0.78349950  0.32609538  0.48038813    -0.80800
O665        O  0.82392571  0.29048868  0.48200086    -0.79500
Zn666      Zn  0.76817860  0.23553381  0.54894761     1.55700
O667        O  0.74780762  0.31386068  0.53712993    -0.80900
Cd668      Cd  0.78279682  0.28631795  0.46757048     1.59700
Cd669      Cd  0.71955836  0.22306142  0.46082020     1.59600
O670        O  0.77474403  0.27709825  0.39134870    -0.80900
O671        O  0.75072468  0.25337457  0.50737516    -1.91400
Cd672      Cd  0.73143805  0.26983366  0.55157169     1.59900
O673        O  0.73030955  0.23615787  0.38676367    -0.80800
O674        O  0.73761880  0.26465977  0.62653926    -0.79500
C675        C  0.73240379  0.17481152  0.49725989     0.83100
C676        C  0.83094019  0.27479543  0.50875503     0.82700
O677        O  0.76260321  0.24032597  0.62320853    -0.78400
C678        C  0.76730854  0.33241955  0.50779708     0.83500
O679        O  0.75045622  0.19218079  0.53075923    -0.78500
C680        C  0.75301670  0.25713397  0.36586196     0.83700
C681        C  0.66846895  0.23000624  0.50657598     0.84000
O682        O  0.67730475  0.21704960  0.47586457    -0.80900
O683        O  0.55947851  0.24370596  0.97791984    -0.78500
C684        C  0.49826641  0.24681383  0.86557271     0.82600
O685        O  0.53897840  0.31842706  0.03779197    -0.79600
O686        O  0.93941367  0.24882750  0.97499448    -0.81000
O687        O  0.96436658  0.17784122  0.03353997    -0.80800
O688        O  0.53664492  0.21041990  0.03735544    -0.79500
Zn689      Zn  0.53446281  0.26251045  0.96333433     1.55700
O690        O  0.94046904  0.18590389  0.97164460    -0.80900
Cd691      Cd  0.49905982  0.21410531  0.04944840     1.59700
Cd692      Cd  0.50083961  0.27824448  0.05020630     1.59600
O693        O  0.00446629  0.23053725  0.11942572    -0.80900
O694        O  0.49981843  0.24597589  0.00638250    -1.91400
Cd695      Cd  0.96571876  0.23070093  0.95763828     1.59900
O696        O  0.00175659  0.27199468  0.11909041    -0.80800
O697        O  0.97563728  0.23639532  0.88158213    -0.79500
C698        C  0.56039581  0.32510455  0.00788106     0.83100
C699        C  0.55846542  0.22437426  0.00792459     0.82700
O700        O  0.52287935  0.25784008  0.88940048    -0.78400
C701        C  0.94239620  0.16885451  0.00334172     0.83500
O702        O  0.56096569  0.30614558  0.97795108    -0.78500
C703        C  0.00324138  0.25154796  0.14231352     0.83700
C704        C  0.94227130  0.27045547  0.00214170     0.84000
O705        O  0.96542117  0.28599684  0.02898609    -0.80900
O706        O  0.97532009  0.23838329  0.61767134    -0.78500
C707        C  0.94009898  0.27214302  0.50128488     0.82600
O708        O  0.96017972  0.17950938  0.46562600    -0.79600
O709        O  0.49713657  0.26941065  0.38778710    -0.81000
O710        O  0.55943942  0.31335949  0.53570428    -0.80800
O711        O  0.52404737  0.26408700  0.62653245    -0.79500
Zn712      Zn  0.96431554  0.23383203  0.54359056     1.55700
O713        O  0.53398176  0.32134553  0.47654926    -0.80900
Cd714      Cd  0.53405218  0.26859397  0.55049720     1.59700
Cd715      Cd  0.99940937  0.21957451  0.45693992     1.59600
O716        O  0.55972632  0.24928305  0.53495453    -0.80900
O717        O  0.99912067  0.25122312  0.50081751    -1.91400
Cd718      Cd  0.99932188  0.28288466  0.45800205     1.59900
O719        O  0.53356962  0.21245729  0.48010165    -0.80800
O720        O  0.96145631  0.28601091  0.47092108    -0.79500
C721        C  0.93851114  0.17218881  0.49537693     0.83100
C722        C  0.99981165  0.25088164  0.64196158     0.82700
O723        O  0.93932183  0.25272362  0.53073763    -0.78400
C724        C  0.55648196  0.33047052  0.50548374     0.83500
O725        O  0.93801065  0.19040471  0.52715852    -0.78500
C726        C  0.55663267  0.22763172  0.50747588     0.83700
C727        C  0.49801179  0.24812011  0.36518705     0.84000
O728        O  0.49830310  0.22714050  0.38877105    -0.80900
O729        O  0.81566548  0.06081058  0.96936655    -0.78500
C730        C  0.75060204  0.00444220  0.85157900     0.82600
O731        O  0.72304173  0.04507435  0.02580734    -0.79600
O732        O  0.68381342  0.43680152  0.96795036    -0.81000
O733        O  0.77785934  0.45834113  0.01722613    -0.80800
O734        O  0.82419379  0.03580884  0.02809847    -0.79500
Zn735      Zn  0.77253587  0.03747785  0.95128860     1.55700
O736        O  0.74770137  0.44075965  0.95084852    -0.80900
Cd737      Cd  0.78215207  0.99813097  0.03433305     1.59700
Cd738      Cd  0.72343128  0.00587029  0.03805635     1.59600
O739        O  0.77091415  0.99431869  0.10980738    -0.80900
O740        O  0.75269926  0.00301283  0.99270288    -1.91400
Cd741      Cd  0.72674809  0.46480070  0.94715120     1.59900
O742        O  0.73597116  0.00696758  0.11223195    -0.80800
O743        O  0.72782342  0.47537945  0.87329576    -0.79500
C744        C  0.73853508  0.06599082  0.99573729     0.83100
C745        C  0.83293241  0.05843253  0.00037820     0.82700
O746        O  0.76773132  0.02775543  0.87693765    -0.78400
C747        C  0.76516017  0.43903459  0.98205789     0.83500
O748        O  0.75662999  0.06454698  0.96540664    -0.78500
C749        C  0.74573213  0.49831925  0.13417934     0.83700
C750        C  0.66656746  0.43847250  0.99988242     0.84000
O751        O  0.67427469  0.46157275  0.02723130    -0.80900
O752        O  0.74366326  0.44010840  0.52544598    -0.78500
C753        C  0.74755369  0.50264034  0.63543426     0.82600
O754        O  0.67178836  0.46302008  0.46511027    -0.79600
O755        O  0.74905420  0.06511403  0.52231103    -0.81000
O756        O  0.82078833  0.03851415  0.46352719    -0.80800
O757        O  0.77862825  0.46135925  0.46732206    -0.79500
Zn758      Zn  0.72674608  0.46645103  0.53854373     1.55700
O759        O  0.81128798  0.06426473  0.52094183    -0.80900
Cd760      Cd  0.77585422  0.49886826  0.45188323     1.59700
Cd761      Cd  0.71313292  0.50034855  0.45204739     1.59600
O762        O  0.76863238  0.99576312  0.37862662    -0.80900
O763        O  0.74481391  0.50016336  0.49494435    -1.91400
Cd764      Cd  0.76714372  0.03895404  0.53713940     1.59900
O765        O  0.73004320  0.00296855  0.37511563    -0.80800
O766        O  0.76319071  0.03077997  0.61280904    -0.79500
C767        C  0.66436503  0.44215133  0.49630717     0.83100
C768        C  0.76327349  0.44018123  0.49694768     0.82700
O769        O  0.73259858  0.47832731  0.61125824    -0.78400
C770        C  0.82887482  0.06160584  0.49108411     0.83500
O771        O  0.68315734  0.44158847  0.52606925    -0.78500
C772        C  0.74967224  0.99901176  0.35337325     0.83700
C773        C  0.72985348  0.06355690  0.49104375     0.84000
O774        O  0.71573500  0.04144468  0.46112694    -0.80900
C775        C  0.74230095  0.52217979  0.77142324    -0.01800
C776        C  0.75090166  0.00568405  0.79653385     0.07900
C777        C  0.77031154  0.99942291  0.76918651    -0.01900
C778        C  0.77074657  0.00075810  0.71650913    -0.01900
C779        C  0.75093999  0.00716312  0.69114354     0.08000
C780        C  0.74352361  0.52330823  0.71875617    -0.02100
Br781      Br  0.73796808  0.55287985  0.68535593    -0.00700
Br782      Br  0.73398383  0.54925702  0.80874098    -0.00700
Br783      Br  0.79932091  0.99519195  0.67896260    -0.00700
Br784      Br  0.79566647  0.98823594  0.80391941    -0.00700
C785        C  0.77815061  0.01065553  0.27192573    -0.01800
C786        C  0.75061562  0.99846693  0.29717564     0.07900
C787        C  0.71736872  0.48509480  0.26865537    -0.01900
C788        C  0.71795829  0.48442338  0.21574899    -0.01900
C789        C  0.75259574  0.99844713  0.19023621     0.08000
C790        C  0.77904968  0.01008338  0.21896663    -0.02100
Br791      Br  0.81711301  0.02641559  0.18648475    -0.00700
Br792      Br  0.81530878  0.03064084  0.30883718    -0.00700
Br793      Br  0.68083391  0.46283407  0.17886314    -0.00700
Br794      Br  0.67929589  0.46627476  0.30098359    -0.00700
C795        C  0.59199364  0.37968696  0.54518780    -0.01800
C796        C  0.58087297  0.36144138  0.50187212     0.07900
C797        C  0.59494850  0.37190029  0.45543072    -0.01900
C798        C  0.62119862  0.39946358  0.45302171    -0.01900
C799        C  0.63364924  0.41678491  0.49695390     0.08000
C800        C  0.61841818  0.40722905  0.54282831    -0.02100
Br801      Br  0.63385692  0.43175885  0.60262810    -0.00700
Br802      Br  0.57077202  0.36707775  0.60754958    -0.00700
Br803      Br  0.64162855  0.41161562  0.39016534    -0.00700
Br804      Br  0.58009919  0.34726994  0.39556098    -0.00700
C805        C  0.90553786  0.12182975  0.53040657    -0.01800
C806        C  0.91234458  0.14218382  0.49143194     0.07900
C807        C  0.89258492  0.13487781  0.45049035    -0.01900
C808        C  0.86612184  0.10734436  0.44853077    -0.01900
C809        C  0.85917563  0.08711363  0.48773954     0.08000
C810        C  0.87907689  0.09425343  0.52836952    -0.02100
Br811      Br  0.86936980  0.06648115  0.58198839    -0.00700
Br812      Br  0.93174502  0.13235198  0.58769890    -0.00700
Br813      Br  0.83806339  0.09843927  0.39444755    -0.00700
Br814      Br  0.90013467  0.16402281  0.40011535    -0.00700
C815        C  0.49285650  0.22310536  0.78120745    -0.01800
C816        C  0.49844033  0.24815965  0.81025538     0.07900
C817        C  0.00219489  0.27409191  0.77826647    -0.01900
C818        C  0.00209171  0.27452934  0.72537358    -0.01900
C819        C  0.99939728  0.25016670  0.69736784     0.08000
C820        C  0.49316233  0.22432354  0.72846279    -0.02100
Br821      Br  0.48653411  0.19029249  0.68894909    -0.00700
Br822      Br  0.48512765  0.18721937  0.81389477    -0.00700
Br823      Br  0.00515461  0.30824529  0.69094674    -0.00700
Br824      Br  0.00449322  0.30686312  0.81645530    -0.00700
C825        C  0.52649311  0.25988838  0.23150939    -0.01800
C826        C  0.00293850  0.25190443  0.19771038     0.07900
C827        C  0.97621699  0.24341228  0.22304152    -0.01900
C828        C  0.97571205  0.24350056  0.27585404    -0.01900
C829        C  0.49864808  0.24771187  0.30970978     0.08000
C830        C  0.52591751  0.25972304  0.28442200    -0.02100
Br831      Br  0.56241749  0.27579389  0.32238835    -0.00700
Br832      Br  0.56383852  0.27805166  0.19688688    -0.00700
Br833      Br  0.93898886  0.23124846  0.31018714    -0.00700
Br834      Br  0.94013614  0.23094909  0.18522029    -0.00700
C835        C  0.61333471  0.40520917  0.97564835    -0.01800
C836        C  0.63763203  0.41158538  0.00713602     0.07900
C837        C  0.63589817  0.38998404  0.04035823    -0.01900
C838        C  0.61020693  0.36189979  0.04136041    -0.01900
C839        C  0.58610135  0.35535157  0.00931972     0.08000
C840        C  0.58753350  0.37707707  0.97677904    -0.02100
Br841      Br  0.55467790  0.36766595  0.93224283    -0.00700
Br842      Br  0.61605345  0.43462047  0.92961955    -0.00700
Br843      Br  0.60857044  0.33169534  0.08453946    -0.00700
Br844      Br  0.66952311  0.39836905  0.08241371    -0.00700
C845        C  0.87221535  0.10212263  0.04818940    -0.01800
C846        C  0.86354417  0.08361049  0.00500000     0.07900
C847        C  0.88249790  0.09183314  0.96330679    -0.01900
C848        C  0.90937765  0.11901400  0.96389808    -0.01900
C849        C  0.91744063  0.13810473  0.00621292     0.08000
C850        C  0.89932737  0.12910722  0.04907656    -0.02100
Br851      Br  0.91038175  0.15493086  0.10751427    -0.00700
Br852      Br  0.84537604  0.09236663  0.10378735    -0.00700
Br853      Br  0.93516223  0.13028237  0.90662396    -0.00700
Br854      Br  0.87096155  0.06620664  0.90465550    -0.00700
C855        C  0.79241734  0.38767580  0.52030328    -0.01800
C856        C  0.76842784  0.36093406  0.50178993     0.07900
C857        C  0.74383507  0.36073965  0.47927069    -0.01900
C858        C  0.74258474  0.38693386  0.47715332    -0.01900
C859        C  0.76634206  0.41366123  0.49616514     0.08000
C860        C  0.79150160  0.41419645  0.51699515    -0.02100
Br861      Br  0.82369012  0.45085956  0.54351101    -0.00700
Br862      Br  0.82540721  0.38752783  0.55283592    -0.00700
Br863      Br  0.70800787  0.38610581  0.44858131    -0.00700
Br864      Br  0.71176397  0.32439054  0.45089446    -0.00700
C865        C  0.74316211  0.13855084  0.45387776    -0.01800
C866        C  0.72824804  0.14475136  0.49207693     0.07900
C867        C  0.71175254  0.12308961  0.52780327    -0.01900
C868        C  0.71106405  0.09571930  0.52638131    -0.01900
C869        C  0.72577071  0.08947609  0.48789941     0.08000
C870        C  0.74120717  0.11066594  0.45093172    -0.02100
Br871      Br  0.76172449  0.10227456  0.39856644    -0.00700
Br872      Br  0.76919392  0.16936578  0.40930906    -0.00700
Br873      Br  0.69118444  0.06727167  0.57828909    -0.00700
Br874      Br  0.69098983  0.13144159  0.57951900    -0.00700
C875        C  0.59500827  0.22067635  0.55238532    -0.01800
C876        C  0.58136109  0.22101303  0.50683270     0.07900
C877        C  0.59371793  0.21854549  0.46105432    -0.01900
C878        C  0.62145755  0.21974143  0.46076357    -0.01900
C879        C  0.63680917  0.22278219  0.50642615     0.08000
C880        C  0.62259043  0.22170552  0.55229209    -0.02100
Br881      Br  0.64053417  0.22138091  0.61566161    -0.00700
Br882      Br  0.57521215  0.21773073  0.61519269    -0.00700
Br883      Br  0.63921290  0.21998296  0.39700567    -0.00700
Br884      Br  0.57372503  0.21526603  0.39811291    -0.00700
C885        C  0.90519947  0.28380792  0.54769933    -0.01800
C886        C  0.91480607  0.27772465  0.50183224     0.07900
C887        C  0.89827132  0.27394157  0.45752212    -0.01900
C888        C  0.87162513  0.27470477  0.45950674    -0.01900
C889        C  0.86125485  0.27919394  0.50584547     0.08000
C890        C  0.87845322  0.28441315  0.54972679    -0.02100
Br891      Br  0.86532258  0.29239875  0.61266968    -0.00700
Br892      Br  0.92884836  0.29151781  0.60785397    -0.00700
Br893      Br  0.84782618  0.26658856  0.39924513    -0.00700
Br894      Br  0.91030157  0.26478744  0.39458842    -0.00700
C895        C  0.75951574  0.27826515  0.73182456    -0.01800
C896        C  0.75079872  0.25192389  0.70381481     0.07900
C897        C  0.74177453  0.22518096  0.72924002    -0.01900
C898        C  0.74208508  0.22492803  0.78213156    -0.01900
C899        C  0.75018959  0.25116783  0.81003787     0.08000
C900        C  0.75823112  0.27767050  0.78457521    -0.02100
Br901      Br  0.76561994  0.31292258  0.82163743    -0.00700
Br902      Br  0.77510275  0.31574777  0.69841233    -0.00700
Br903      Br  0.73252763  0.18873364  0.81600738    -0.00700
Br904      Br  0.72759454  0.18844301  0.69194495    -0.00700
C905        C  0.76276239  0.28482153  0.23169267    -0.01800
C906        C  0.75603019  0.25886338  0.20379865     0.07900
C907        C  0.74907418  0.23267698  0.22956774    -0.01900
C908        C  0.74880366  0.23247566  0.28234964    -0.01900
C909        C  0.75439090  0.25800932  0.31019658     0.08000
C910        C  0.76148524  0.28425807  0.28460167    -0.02100
Br911      Br  0.76814778  0.31923690  0.32167101    -0.00700
Br912      Br  0.77525848  0.32175572  0.19799298    -0.00700
Br913      Br  0.74212674  0.19727611  0.31622750    -0.00700
Br914      Br  0.73825998  0.19619216  0.19320614    -0.00700
C915        C  0.79613486  0.41435885  0.99120245    -0.01800
C916        C  0.76880748  0.41255409  0.97884300     0.07900
C917        C  0.74410395  0.38457788  0.96515071    -0.01900
C918        C  0.74667580  0.35909983  0.96587815    -0.01900
C919        C  0.77264108  0.36062138  0.98450800     0.08000
C920        C  0.79775058  0.38825530  0.99559417    -0.02100
Br921      Br  0.83376256  0.39009719  0.01850527    -0.00700
Br922      Br  0.83169504  0.45234923  0.99984042    -0.00700
Br923      Br  0.71454930  0.32164262  0.94053977    -0.00700
Br924      Br  0.70535860  0.37933984  0.94964036    -0.00700
C925        C  0.76419533  0.12110912  0.99940786    -0.01800
C926        C  0.73731646  0.09374790  0.99750786     0.07900
C927        C  0.71006263  0.09346325  0.99592941    -0.01900
C928        C  0.70971901  0.12038869  0.99745115    -0.01900
C929        C  0.73666847  0.14763471  0.99956491     0.08000
C930        C  0.76383972  0.14779413  0.99813875    -0.02100
Br931      Br  0.80089471  0.18453717  0.99004672    -0.00700
Br932      Br  0.80193091  0.12264500  0.00739755    -0.00700
Br933      Br  0.67236366  0.11976589  0.99712178    -0.00700
Br934      Br  0.67327150  0.05634768  0.98994129    -0.00700
C935        C  0.59828723  0.22055792  0.05569255    -0.01800
C936        C  0.58421457  0.21937769  0.00955156     0.07900
C937        C  0.59707296  0.21709647  0.96431625    -0.01900
C938        C  0.62523929  0.21944711  0.96462360    -0.01900
C939        C  0.64036917  0.22288117  0.01052249     0.08000
C940        C  0.62613395  0.22208014  0.05610317    -0.02100
Br941      Br  0.64480173  0.22314260  0.11947462    -0.00700
Br942      Br  0.58078679  0.22220964  0.11871012    -0.00700
Br943      Br  0.64399799  0.22090900  0.90137648    -0.00700
Br944      Br  0.57579971  0.21026855  0.90156441    -0.00700
C945        C  0.90119744  0.27313659  0.95771183    -0.01800
C946        C  0.91745861  0.27693339  0.00250562     0.07900
C947        C  0.90804723  0.28425917  0.04770726    -0.01900
C948        C  0.88177496  0.28585601  0.04828083    -0.01900
C949        C  0.86415138  0.27900708  0.00452355     0.08000
C950        C  0.87414260  0.27300000  0.95912131    -0.02100
Br951      Br  0.84935397  0.26138619  0.89953968    -0.00700
Br952      Br  0.91611693  0.26891576  0.89349819    -0.00700
Br953      Br  0.86978879  0.29748629  0.10906347    -0.00700
Br954      Br  0.92943479  0.29016027  0.11007866    -0.00700
O955        O  0.81234964  0.75174575  0.04013110    -0.78500
C956        C  0.75052719  0.75404412  0.15050170     0.82600
O957        O  0.71932719  0.68048604  0.97357910    -0.79600
O958        O  0.68937613  0.75187455  0.03414590    -0.81000
O959        O  0.78538980  0.82312500  0.97354148    -0.80800
O960        O  0.82483467  0.78714463  0.98386435    -0.79500
Zn961      Zn  0.76865366  0.73503393  0.05385416     1.55700
O962        O  0.75139487  0.81448672  0.03201130    -0.80900
Cd963      Cd  0.78419992  0.78294707  0.96754315     1.59700
Cd964      Cd  0.72073290  0.72071007  0.96449953     1.59600
O965        O  0.77628094  0.77120386  0.89259680    -0.80900
O966        O  0.75199755  0.75204832  0.00952563    -1.91400
Cd967      Cd  0.73384089  0.77074034  0.05081640     1.59900
O968        O  0.73082402  0.73183487  0.89013945    -0.80800
O969        O  0.73826957  0.76628000  0.12697759    -0.79500
C970        C  0.73264307  0.67320960  0.00565040     0.83100
C971        C  0.83143116  0.77166896  0.01189021     0.82700
O972        O  0.76309787  0.74183853  0.12715040    -0.78400
C973        C  0.77015379  0.83119145  0.99976867     0.83500
O974        O  0.74975609  0.69141215  0.03923568    -0.78500
C975        C  0.75388129  0.75149416  0.86820797     0.83700
C976        C  0.67140040  0.73136966  0.00440219     0.84000
O977        O  0.67941958  0.71655674  0.97658492    -0.80900
O978        O  0.81298631  0.75346176  0.53544228    -0.78500
C979        C  0.75322232  0.75127491  0.65130987     0.82600
O980        O  0.71656245  0.68043151  0.47614563    -0.79600
O981        O  0.69004767  0.75265809  0.54118477    -0.81000
O982        O  0.78279563  0.82464122  0.48081295    -0.80800
O983        O  0.82360395  0.78940746  0.48080523    -0.79500
Zn984      Zn  0.76958777  0.73442147  0.55107545     1.55700
O985        O  0.75201491  0.81440154  0.54529804    -0.80900
Cd986      Cd  0.78206207  0.78461398  0.46778032     1.59700
Cd987      Cd  0.71950224  0.72122074  0.46687130     1.59600
O988        O  0.77161813  0.77363900  0.39207252    -0.80900
O989        O  0.75175045  0.75228058  0.51064690    -1.91400
Cd990      Cd  0.73433521  0.76985795  0.55649231     1.59900
O991        O  0.72808158  0.73168195  0.39180431    -0.80800
O992        O  0.73986549  0.76323445  0.63061533    -0.79500
C993        C  0.73108635  0.67258839  0.50443188     0.83100
C994        C  0.83132303  0.77433945  0.50783611     0.82700
O995        O  0.76553314  0.73965283  0.62560946    -0.78400
C996        C  0.76928999  0.83211797  0.51258674     0.83500
O997        O  0.75115949  0.69063184  0.53477609    -0.78500
C998        C  0.74954497  0.75262891  0.36864388     0.83700
C999        C  0.67170147  0.73306532  0.51062534     0.84000
O1000       O  0.67906282  0.71829865  0.48139360    -0.80900
O1001       O  0.56315835  0.75214368  0.96802034    -0.78500
C1002       C  0.50324805  0.75411160  0.85389636     0.82600
O1003       O  0.54148027  0.82609227  0.02810571    -0.79600
O1004       O  0.93843572  0.74837558  0.97325754    -0.81000
O1005       O  0.95930462  0.67460303  0.03115734    -0.80800
O1006       O  0.53839602  0.71635198  0.02275627    -0.79500
Zn1007     Zn  0.53852779  0.77110273  0.95297347     1.55700
O1008       O  0.93743628  0.68484685  0.96866910    -0.80900
Cd1009     Cd  0.50190100  0.72126244  0.03718669     1.59700
Cd1010     Cd  0.50326594  0.78531542  0.03843670     1.59600
O1011       O  0.00000930  0.72510328  0.11968328    -0.80900
O1012       O  0.50325258  0.75347473  0.99462713    -1.91400
Cd1013     Cd  0.96454378  0.72971705  0.95690128     1.59900
O1014       O  0.99766150  0.76676387  0.12133559    -0.80800
O1015       O  0.97695059  0.73619676  0.88201297    -0.79500
C1016       C  0.56383231  0.83323712  0.00014631     0.83100
C1017       C  0.56102332  0.73135332  0.99546796     0.82700
O1018       O  0.52771821  0.76597738  0.87837970    -0.78400
C1019       C  0.93784001  0.66691346  0.00021829     0.83500
O1020       O  0.56507165  0.81472029  0.96992814    -0.78500
C1021       C  0.99883271  0.74588010  0.14349222     0.83700
C1022       C  0.94053414  0.76868729  0.00316056     0.84000
O1023       O  0.96287448  0.78278766  0.03224413    -0.80900
O1024       O  0.97514516  0.73614670  0.62014908    -0.78500
C1025       C  0.93922799  0.76995567  0.50330916     0.82600
O1026       O  0.95920150  0.67654546  0.46788540    -0.79600
O1027       O  0.49774696  0.77110720  0.37689676    -0.81000
O1028       O  0.56095234  0.81687457  0.52436367    -0.80800
O1029       O  0.52589569  0.76773370  0.61481642    -0.79500
Zn1030     Zn  0.96316318  0.73133919  0.54570033     1.55700
O1031       O  0.53593415  0.82402927  0.46345401    -0.80900
Cd1032     Cd  0.53623668  0.77229647  0.53952364     1.59700
Cd1033     Cd  0.99847513  0.71669041  0.45953066     1.59600
O1034       O  0.56327989  0.75472329  0.52721004    -0.80900
O1035       O  0.99764646  0.74851697  0.50212327    -1.91400
Cd1036     Cd  0.99713063  0.77897822  0.45730300     1.59900
O1037       O  0.53978798  0.71815393  0.47065240    -0.80800
O1038       O  0.96023527  0.78310847  0.47211156    -0.79500
C1039       C  0.93688766  0.66965403  0.49586438     0.83100
C1040       C  0.99989078  0.75050532  0.64369043     0.82700
O1041       O  0.93845077  0.75079423  0.53345505    -0.78400
C1042       C  0.55823220  0.83362925  0.49310466     0.83500
O1043       O  0.93620239  0.68800617  0.52723848    -0.78500
C1044       C  0.56173383  0.73368382  0.50009236     0.83700
C1045       C  0.50172720  0.75185593  0.35350715     0.84000
O1046       O  0.50510309  0.73236077  0.37637670    -0.80900
O1047       O  0.80854412  0.55860987  0.96849111    -0.78500
C1048       C  0.74482615  0.49967640  0.85199276     0.82600
O1049       O  0.71312278  0.53909077  0.02255806    -0.79600
O1050       O  0.68805990  0.94272827  0.96845836    -0.81000
O1051       O  0.78189571  0.95925113  0.01346723    -0.80800
O1052       O  0.81814106  0.53517426  0.02858059    -0.79500
Zn1053     Zn  0.76534360  0.53385294  0.95096233     1.55700
O1054       O  0.74977267  0.94187262  0.94976277    -0.80900
Cd1055     Cd  0.77648626  0.49678334  0.03586694     1.59700
Cd1056     Cd  0.71519616  0.50079109  0.03589031     1.59600
O1057       O  0.76463090  0.49396704  0.11088736    -0.80900
O1058       O  0.74630676  0.49968705  0.99292880    -1.91400
Cd1059     Cd  0.73136340  0.96848774  0.94643321     1.59900
O1060       O  0.72707783  0.50293885  0.11074956    -0.80800
O1061       O  0.73335524  0.97998815  0.87236436    -0.79500
C1062       C  0.72915268  0.56054662  0.99375528     0.83100
C1063       C  0.82631854  0.55726727  0.99973019     0.82700
O1064       O  0.76132239  0.52329341  0.87716357    -0.78400
C1065       C  0.76765933  0.93966362  0.97934103     0.83500
O1066       O  0.74807112  0.55985528  0.96438915    -0.78500
C1067       C  0.75331763  0.00005731  0.13437419     0.83700
C1068       C  0.67193216  0.94512801  0.00194627     0.84000
O1069       O  0.68127561  0.96806306  0.03041266    -0.80900
O1070       O  0.74586972  0.94118207  0.52830061    -0.78500
C1071       C  0.75002119  0.00645610  0.63601203     0.82600
O1072       O  0.67644093  0.96524718  0.46079606    -0.79600
O1073       O  0.74448774  0.56173070  0.52673026    -0.81000
O1074       O  0.81744987  0.53719631  0.46141920    -0.80800
O1075       O  0.78240491  0.96219068  0.47286328    -0.79500
Zn1076     Zn  0.72949307  0.96846673  0.53994126     1.55700
O1077       O  0.80819716  0.56293756  0.51912316    -0.80900
Cd1078     Cd  0.77966932  0.99962229  0.45450822     1.59700
Cd1079     Cd  0.71798999  0.00284500  0.44964516     1.59600
O1080       O  0.76376363  0.49622282  0.37678376    -0.80900
O1081       O  0.74828102  0.00191849  0.49534672    -1.91400
Cd1082     Cd  0.76432594  0.53661895  0.53781869     1.59900
O1083       O  0.72375873  0.50122680  0.37659963    -0.80800
O1084       O  0.76220051  0.52711168  0.61297872    -0.79500
C1085       C  0.66787003  0.94446693  0.49259152     0.83100
C1086       C  0.76604633  0.94091030  0.50171907     0.82700
O1087       O  0.73632675  0.98149512  0.61306456    -0.78400
C1088       C  0.82568820  0.56033852  0.48887754     0.83500
O1089       O  0.68555531  0.94400323  0.52521140    -0.78500
C1090       C  0.74375611  0.49870176  0.35321997     0.83700
C1091       C  0.72463379  0.55997042  0.49664878     0.84000
O1092       O  0.71049709  0.53816391  0.46628076    -0.80900
C1093       C  0.73174172  0.01300053  0.77124312    -0.01800
C1094       C  0.74556347  0.50041315  0.79670868     0.07900
C1095       C  0.74971900  0.47946560  0.76907261    -0.01900
C1096       C  0.75076175  0.48042159  0.71635868    -0.01900
C1097       C  0.74758959  0.50231819  0.69092111     0.08000
C1098       C  0.73179889  0.01380075  0.71848985    -0.02100
Br1099     Br  0.70573222  0.02395238  0.68356933    -0.00700
Br1100     Br  0.70500712  0.02119662  0.80905244    -0.00700
Br1101     Br  0.75814253  0.45246270  0.67961600    -0.00700
Br1102     Br  0.75523892  0.45001474  0.80318131    -0.00700
C1103       C  0.77144883  0.51283157  0.27126033    -0.01800
C1104       C  0.74413182  0.49890330  0.29706018     0.07900
C1105       C  0.72413188  0.98595082  0.26814648    -0.01900
C1106       C  0.72511277  0.98589552  0.21528024    -0.01900
C1107       C  0.74526357  0.49805413  0.19013254     0.08000
C1108       C  0.77200557  0.51203599  0.21835055    -0.02100
Br1109     Br  0.80990426  0.53135028  0.18522333    -0.00700
Br1110     Br  0.80863574  0.53549361  0.30752310    -0.00700
Br1111     Br  0.68818235  0.96671837  0.17743968    -0.00700
Br1112     Br  0.68575351  0.96781802  0.29955042    -0.00700
C1113       C  0.59233135  0.88300125  0.53358003    -0.01800
C1114       C  0.58271385  0.86470780  0.49011901     0.07900
C1115       C  0.59921143  0.87470292  0.44563701    -0.01900
C1116       C  0.62662329  0.90135738  0.44605856    -0.01900
C1117       C  0.63706125  0.91903438  0.49019763     0.08000
C1118       C  0.61925816  0.91022135  0.53348571    -0.02100
Br1119     Br  0.63186805  0.93532406  0.59284374    -0.00700
Br1120     Br  0.56842221  0.87066108  0.59323102    -0.00700
Br1121     Br  0.65150556  0.91134413  0.38790175    -0.00700
Br1122     Br  0.58558790  0.85074517  0.38492318    -0.00700
C1123       C  0.90703548  0.61526173  0.51416501    -0.01800
C1124       C  0.90996702  0.64029477  0.48941891     0.07900
C1125       C  0.88623332  0.63782711  0.46018572    -0.01900
C1126       C  0.85928543  0.61083241  0.45742367    -0.01900
C1127       C  0.85579064  0.58616550  0.48406623     0.08000
C1128       C  0.87994407  0.58814238  0.51137708    -0.02100
Br1129     Br  0.87537013  0.55407012  0.54649378    -0.00700
Br1130     Br  0.93957887  0.61875580  0.55399482    -0.00700
Br1131     Br  0.82665722  0.60767698  0.41804860    -0.00700
Br1132     Br  0.89033562  0.67185376  0.42523363    -0.00700
C1133       C  0.50138181  0.72945974  0.77187041    -0.01800
C1134       C  0.50363769  0.75406929  0.79850049     0.07900
C1135       C  0.01414542  0.77678842  0.78034744    -0.01900
C1136       C  0.01276522  0.77704559  0.72745616    -0.01900
C1137       C  0.00062438  0.75024512  0.69937889     0.08000
C1138       C  0.50015596  0.72855358  0.71899210    -0.02100
Br1139     Br  0.49719738  0.69491967  0.68258739    -0.00700
Br1140     Br  0.50022088  0.69714316  0.80815966    -0.00700
Br1141     Br  0.02640466  0.81408871  0.69364499    -0.00700
Br1142     Br  0.03014436  0.81341242  0.81839720    -0.00700
C1143       C  0.52976340  0.76283801  0.21934963    -0.01800
C1144       C  0.99869215  0.74576527  0.19875051     0.07900
C1145       C  0.97257800  0.73905203  0.22464173    -0.01900
C1146       C  0.97230133  0.73865718  0.27741476    -0.01900
C1147       C  0.50231206  0.75218562  0.29792887     0.08000
C1148       C  0.52922495  0.76194242  0.27225959    -0.02100
Br1149     Br  0.56549391  0.77501523  0.30969519    -0.00700
Br1150     Br  0.56675697  0.77731538  0.18440094    -0.00700
Br1151     Br  0.93582413  0.72675343  0.31234242    -0.00700
Br1152     Br  0.93704792  0.72993308  0.18766365    -0.00700
C1153       C  0.61749784  0.91544706  0.98243350    -0.01800
C1154       C  0.64235002  0.91904610  0.00954100     0.07900
C1155       C  0.64035755  0.89525818  0.03706360    -0.01900
C1156       C  0.61444997  0.86732434  0.03431292    -0.01900
C1157       C  0.59003261  0.86323762  0.00516200     0.08000
C1158       C  0.59135205  0.88748682  0.98002472    -0.02100
Br1159     Br  0.55816600  0.88178166  0.93955065    -0.00700
Br1160     Br  0.61975114  0.94876156  0.94805487    -0.00700
Br1161     Br  0.61291968  0.83419173  0.06853314    -0.00700
Br1162     Br  0.67358649  0.90099810  0.07781092    -0.00700
C1163       C  0.86621263  0.60179323  0.04551112    -0.01800
C1164       C  0.85691261  0.58284372  0.00284187     0.07900
C1165       C  0.87534953  0.59073517  0.96043097    -0.01900
C1166       C  0.90253719  0.61766279  0.96024159    -0.01900
C1167       C  0.91157654  0.63682266  0.00258725     0.08000
C1168       C  0.89355638  0.62855204  0.04556325    -0.02100
Br1169     Br  0.90495667  0.65528986  0.10285553    -0.00700
Br1170     Br  0.84008291  0.59289478  0.10180957    -0.00700
Br1171     Br  0.92730861  0.62847047  0.90173854    -0.00700
Br1172     Br  0.86291630  0.56483671  0.90205518    -0.00700
C1173       C  0.79470487  0.88756825  0.52498261    -0.01800
C1174       C  0.77026524  0.86073239  0.50785359     0.07900
C1175       C  0.74508718  0.86051353  0.48790477    -0.01900
C1176       C  0.74425248  0.88694905  0.48501061    -0.01900
C1177       C  0.76860620  0.91390899  0.50211062     0.08000
C1178       C  0.79402631  0.91427110  0.52157116    -0.02100
Br1179     Br  0.82715143  0.95100084  0.54567711    -0.00700
Br1180     Br  0.82795253  0.88722945  0.55614395    -0.00700
Br1181     Br  0.70969567  0.88618462  0.45658053    -0.00700
Br1182     Br  0.71133359  0.82360855  0.46501039    -0.00700
C1183       C  0.73770570  0.63434736  0.45895716    -0.01800
C1184       C  0.72573581  0.64210064  0.49991574     0.07900
C1185       C  0.70995721  0.62111085  0.53705515    -0.01900
C1186       C  0.70771011  0.59303570  0.53466272    -0.01900
C1187       C  0.72031098  0.58568281  0.49419746     0.08000
C1188       C  0.73384428  0.60575096  0.45501106    -0.02100
Br1189     Br  0.74834329  0.59443404  0.39697427    -0.00700
Br1190     Br  0.76246030  0.66387393  0.41143483    -0.00700
Br1191     Br  0.68735831  0.56449021  0.58629245    -0.00700
Br1192     Br  0.69214092  0.63111545  0.59155435    -0.00700
C1193       C  0.59861616  0.72644178  0.54909210    -0.01800
C1194       C  0.58704072  0.72829737  0.50215837     0.07900
C1195       C  0.60209170  0.72895278  0.45776101    -0.01900
C1196       C  0.62963862  0.73010077  0.46048955    -0.01900
C1197       C  0.64143460  0.72870219  0.50748138     0.08000
C1198       C  0.62550223  0.72623093  0.55167937    -0.02100
Br1199     Br  0.64061544  0.72292320  0.61613345    -0.00700
Br1200     Br  0.57772297  0.72423551  0.61024868    -0.00700
Br1201     Br  0.65287012  0.73775333  0.40019605    -0.00700
Br1202     Br  0.58644538  0.73081043  0.39304395    -0.00700
C1203       C  0.90470005  0.78263731  0.54876334    -0.01800
C1204       C  0.91428274  0.77603173  0.50335919     0.07900
C1205       C  0.89850901  0.77308305  0.45841736    -0.01900
C1206       C  0.87267777  0.77532805  0.45925717    -0.01900
C1207       C  0.86189758  0.77957392  0.50526996     0.08000
C1208       C  0.87854448  0.78434883  0.54968369    -0.02100
Br1209     Br  0.86560873  0.79370733  0.61163622    -0.00700
Br1210     Br  0.92737562  0.78938324  0.60979914    -0.00700
Br1211     Br  0.85081909  0.77018599  0.39761457    -0.00700
Br1212     Br  0.91000436  0.76256164  0.39621758    -0.00700
C1213       C  0.76477126  0.77817063  0.73391209    -0.01800
C1214       C  0.75464143  0.75135347  0.70669529     0.07900
C1215       C  0.74509723  0.72472963  0.73261640    -0.01900
C1216       C  0.74553864  0.72487999  0.78543225    -0.01900
C1217       C  0.75463094  0.75154155  0.81271349     0.08000
C1218       C  0.76425320  0.77821891  0.78668165    -0.02100
Br1219     Br  0.77513119  0.81480076  0.82265138    -0.00700
Br1220     Br  0.78054599  0.81523318  0.69897873    -0.00700
Br1221     Br  0.73475962  0.68855734  0.82004834    -0.00700
Br1222     Br  0.72984650  0.68764593  0.69611384    -0.00700
C1223       C  0.75609424  0.77933920  0.23446389    -0.01800
C1224       C  0.74977487  0.75359627  0.20630917     0.07900
C1225       C  0.74213224  0.72714338  0.23178730    -0.01900
C1226       C  0.74186883  0.72674088  0.28467050    -0.01900
C1227       C  0.74879751  0.75264257  0.31282703     0.08000
C1228       C  0.75503244  0.77867349  0.28733350    -0.02100
Br1229     Br  0.75998461  0.81298938  0.32456644    -0.00700
Br1230     Br  0.76766575  0.81621534  0.20125021    -0.00700
Br1231     Br  0.73247060  0.69047551  0.31792120    -0.00700
Br1232     Br  0.73043465  0.69070914  0.19461822    -0.00700
C1233       C  0.79695261  0.91334185  0.98952535    -0.01800
C1234       C  0.77014074  0.91242356  0.97629775     0.07900
C1235       C  0.74475318  0.88459315  0.96410248    -0.01900
C1236       C  0.74568442  0.85835641  0.97004546    -0.01900
C1237       C  0.77143327  0.85938915  0.98889223     0.08000
C1238       C  0.79741008  0.88682244  0.99676274    -0.02100
Br1239     Br  0.83311081  0.88794282  0.01959239    -0.00700
Br1240     Br  0.83358176  0.95069460  0.99479619    -0.00700
Br1241     Br  0.71149745  0.82050338  0.95154428    -0.00700
Br1242     Br  0.70765736  0.88087738  0.94120032    -0.00700
C1243       C  0.75585526  0.61512456  0.00533434    -0.01800
C1244       C  0.72865753  0.58863360  0.99751039     0.07900
C1245       C  0.70224057  0.58972298  0.99252049    -0.01900
C1246       C  0.70311925  0.61727374  0.99537631    -0.01900
C1247       C  0.73055646  0.64381192  0.00201985     0.08000
C1248       C  0.75697978  0.64252739  0.00528465    -0.02100
Br1249     Br  0.79547700  0.67829166  0.00545704    -0.00700
Br1250     Br  0.79185732  0.61416868  0.01961752    -0.00700
Br1251     Br  0.66668875  0.61837400  0.99126196    -0.00700
Br1252     Br  0.66511676  0.55369971  0.98036298    -0.00700
C1253       C  0.59749657  0.72239660  0.04339322    -0.01800
C1254       C  0.58631335  0.72571437  0.99693741     0.07900
C1255       C  0.60152137  0.72697792  0.95227254    -0.01900
C1256       C  0.62894709  0.72780628  0.95443107    -0.01900
C1257       C  0.64069067  0.72584816  0.00104124     0.08000
C1258       C  0.62436958  0.72207314  0.04519870    -0.02100
Br1259     Br  0.63920939  0.71695285  0.10862204    -0.00700
Br1260     Br  0.57788151  0.72087935  0.10571487    -0.00700
Br1261     Br  0.65174482  0.73487478  0.89383616    -0.00700
Br1262     Br  0.58480674  0.72734554  0.88762292    -0.00700
C1263       C  0.89976393  0.77281442  0.96036287    -0.01800
C1264       C  0.91556113  0.77493954  0.00493012     0.07900
C1265       C  0.90539788  0.78013437  0.05132163    -0.01900
C1266       C  0.87844767  0.78037223  0.05328363    -0.01900
C1267       C  0.86153019  0.77554808  0.00927730     0.08000
C1268       C  0.87257638  0.77241492  0.96265545    -0.02100
Br1269     Br  0.84926751  0.76479287  0.90195026    -0.00700
Br1270     Br  0.91564412  0.77149704  0.89538551    -0.00700
Br1271     Br  0.86451784  0.78730261  0.11644315    -0.00700
Br1272     Br  0.92707193  0.78573539  0.11323162    -0.00700
loop_ 
_geom_bond_atom_site_label_1 
_geom_bond_atom_site_label_2 
_geom_bond_distance 
_geom_bond_site_symmetry_2 
_ccdc_geom_bond_type 
O1           C17   1.273       .  A
O1           Zn7   2.008       .  S
C2           O18   1.273       .  A
C2           O15   1.272       .  A
C2          C270   1.481       .  S
O3           C16   1.275   1_556  A
O3          Cd10   2.084       .  S
O4           C22   1.273       .  A
O4          Cd13   2.055       .  S
O5           C19   1.277   1_556  A
O5           Cd9   2.093       .  S
O6           C17   1.276   1_556  A
O6           Cd9   2.094       .  S
Zn7          O18   2.018       .  S
Zn7          O20   1.992       .  S
Zn7          O12   1.927       .  S
O8           C19   1.273       .  A
O8          Cd13   2.049       .  S
Cd9          O11   2.081       .  S
Cd9          O12   2.014   1_556  S
Cd10         O14   2.073       .  S
Cd10         O23   2.087       .  S
Cd10         O12   2.017   1_556  S
O11          C21   1.277       .  A
O12         Cd13   1.983       .  S
Cd13         O15   2.060       .  S
O14          C21   1.276       .  A
C16          O20   1.272       .  A
C16         C293   1.480       .  S
C17         C313   1.495       .  S
C19         C283   1.481   1_554  S
C21         C263   1.483       .  S
C22          O23   1.276   1_554  A
C22         C303   1.482       .  S
O24          C40   1.272       .  A
O24         Zn30   1.997       .  S
C25          O41   1.274       .  A
C25          O38   1.276       .  A
C25         C260   1.492       .  S
O26          C39   1.275       .  A
O26         Cd33   2.085       .  S
O27          C45   1.273       .  A
O27         Cd36   2.054       .  S
O28          C42   1.275       .  A
O28         Cd32   2.079       .  S
O29          C40   1.275       .  A
O29         Cd32   2.073       .  S
Zn30         O41   2.025       .  S
Zn30         O43   2.005       .  S
Zn30         O35   1.932       .  S
O31          C42   1.274       .  A
O31         Cd36   2.060       .  S
Cd32         O34   2.071       .  S
Cd32         O35   2.012       .  S
Cd33         O37   2.073       .  S
Cd33         O46   2.082       .  S
Cd33         O35   2.011       .  S
O34          C44   1.275       .  A
O35         Cd36   1.988       .  S
Cd36         O38   2.075       .  S
O37          C44   1.276       .  A
C39          O43   1.274       .  A
C39         C230   1.479       .  S
C40         C253   1.476       .  S
C42         C220   1.473       .  S
C44         C273   1.480       .  S
C45          O46   1.276       .  A
C45         C243   1.484       .  S
O47          C63   1.276       .  A
O47         Zn53   2.024       .  S
C48          O64   1.275       .  A
C48         O697   1.275   1_455  A
C48         C180   1.480       .  S
O49          C62   1.275       .  A
O49         Cd56   2.075       .  S
O50          C68   1.275   1_556  A
O50         Cd59   2.072       .  S
O51          C65   1.277       .  A
O51        Cd691   2.090       .  S
O52          C63   1.275   1_554  A
O52         Cd55   2.073       .  S
Zn53         O64   2.038       .  S
Zn53         O66   2.017       .  S
Zn53         O58   1.948   1_556  S
O54          C65   1.276   1_556  A
O54         Cd59   2.071       .  S
Cd55        O687   2.083   1_455  S
Cd55        O693   2.079       .  S
Cd55         O58   2.011       .  S
Cd56        O696   2.078       .  S
Cd56        O705   2.080   1_455  S
Cd56         O58   2.014       .  S
O57          C67   1.276       .  A
O57        Cd691   2.085       .  S
O58        Cd695   1.995   1_454  S
Cd59         O61   2.072       .  S
Cd59        O694   2.000   1_556  S
O60          C67   1.275       .  A
O60        Cd692   2.076       .  S
O61         C684   1.274       .  A
C62          O66   1.274   1_554  A
C62         C203   1.477       .  S
C63         C300   1.485   1_556  S
C65         C213   1.485       .  S
C67         C190   1.476       .  S
C68          O69   1.276       .  A
C68         C310   1.482       .  S
O69        Cd692   2.082       .  S
O70          C86   1.275       .  A
O70         Zn76   2.029       .  S
C71          O87   1.273       .  A
C71          O84   1.274       .  A
C71         C250   1.482       .  S
O72          C85   1.276       .  A
O72         Cd79   2.084       .  S
O73          C91   1.276   1_655  A
O73        Cd718   2.081       .  S
O74          C88   1.274       .  A
O74         Cd78   2.064       .  S
O75         C722   1.274   1_455  A
O75         Cd78   2.076       .  S
Zn76         O87   2.008       .  S
Zn76         O89   2.009       .  S
Zn76         O81   1.945       .  S
O77          C88   1.277       .  A
O77        Cd718   2.092   1_455  S
Cd78         O80   2.061       .  S
Cd78        O717   1.995   1_455  S
Cd79        O719   2.091       .  S
Cd79        O728   2.085       .  S
Cd79         O81   2.013       .  S
O80          C90   1.274       .  A
O81         Cd82   2.010       .  S
O81        Cd714   2.000       .  S
Cd82         O84   2.070       .  S
Cd82        O709   2.084       .  S
Cd82        O713   2.068       .  S
O83          C90   1.277       .  A
O83        Cd715   2.090   1_455  S
C85          O89   1.273       .  A
C85         C170   1.477       .  S
C86         O711   1.275       .  A
C86         C183   1.478       .  S
C88         C160   1.486       .  S
C90         C240   1.486       .  S
C91          O92   1.276       .  A
C91         C193   1.477       .  S
O92        Cd715   2.080   1_455  S
O93         C109   1.275   1_556  A
O93         Zn99   2.025       .  S
C94         O110   1.273   1_565  A
C94         O425   1.268       .  A
C94         C140   1.473       .  S
O95         C108   1.276       .  A
O95        Cd102   2.082       .  S
O96         C114   1.273       .  A
O96        Cd105   2.061       .  S
O97         C111   1.278   1_554  A
O97        Cd419   2.096       .  S
O98         C109   1.279       .  A
O98        Cd101   2.098   1_545  S
Zn99        O110   2.022       .  S
Zn99        O112   1.983       .  S
Zn99        O104   1.930   1_546  S
O100        C111   1.271       .  A
O100       Cd105   2.040       .  S
Cd101       O103   2.084       .  S
Cd101       O415   2.076       .  S
Cd101       O104   2.009       .  S
Cd102       O106   2.078       .  S
Cd102       O433   2.100   1_545  S
Cd102       O104   2.012   1_545  S
O103        C431   1.275       .  A
O104       Cd423   1.982   1_554  S
Cd105       O107   2.059       .  S
Cd105       O422   1.988       .  S
O106        C431   1.276   1_545  A
O107        C412   1.271       .  A
C108        O112   1.272   1_554  A
C108        C290   1.474       .  S
C109        C210   1.490       .  S
C111        C280   1.481       .  S
C113        O421   1.275       .  A
C113        O424   1.275       .  A
C113        C471   1.503       .  S
C114        O115   1.277   1_556  A
C114        C200   1.480       .  S
O115       Cd420   2.090       .  S
O116        C132   1.271       .  A
O116       Zn122   2.000       .  S
C117        O133   1.273       .  A
C117        O448   1.273       .  A
C117        C461   1.467       .  S
O118        C131   1.279       .  A
O118       Cd125   2.098       .  S
O119        C137   1.274       .  A
O119       Cd128   2.061       .  S
O120        C134   1.276       .  A
O120       Cd442   2.080   1_545  S
O121        C132   1.274       .  A
O121       Cd124   2.078       .  S
Zn122       O133   2.014       .  S
Zn122       O135   2.005       .  S
Zn122       O127   1.938       .  S
O123        C134   1.274       .  A
O123       Cd128   2.069       .  S
Cd124       O438   2.100       .  S
Cd124       O444   2.063       .  S
Cd124       O127   2.009       .  S
Cd125       O447   2.092       .  S
Cd125       O456   2.091       .  S
Cd125       O127   2.017       .  S
O126        C136   1.274       .  A
O126       Cd442   2.068       .  S
O127       Cd446   1.994       .  S
Cd128       O130   2.057       .  S
Cd128       O445   1.989   1_545  S
O129        C136   1.275   1_545  A
O129       Cd443   2.077       .  S
O130        C435   1.274   1_545  A
C131        O135   1.272       .  A
C131        C163   1.488       .  S
C132        C223   1.473       .  S
C134        C173   1.478       .  S
C136        C150   1.495       .  S
C137        O138   1.277       .  A
C137        C233   1.481       .  S
O138       Cd443   2.091       .  S
C139        C144   1.405       .  A
C139        C458   1.407       .  A
C139       Br146   1.929       .  S
C140        C141   1.409   1_565  A
C140        C457   1.412       .  A
C141        C142   1.401       .  A
C141       Br148   1.923       .  S
C142        C143   1.406   1_545  A
C142       Br147   1.931       .  S
C143        C435   1.468       .  S
C143        C462   1.409       .  A
C144        C461   1.408       .  A
C144       Br145   1.929       .  S
C149        C150   1.418   1_545  A
C149        C154   1.412       .  A
C149       Br156   1.938       .  S
C150        C469   1.416       .  A
C151        C152   1.412       .  A
C151        C468   1.417       .  A
C151       Br158   1.934       .  S
C152        C471   1.420       .  A
C152       Br157   1.937       .  S
C153        C431   1.499       .  S
C153        C154   1.418   1_565  A
C153        C470   1.418       .  A
C154       Br155   1.930       .  S
C159        C160   1.413       .  A
C159        C164   1.411       .  A
C159       Br166   1.932       .  S
C160        C161   1.412       .  A
C161        C162   1.410       .  A
C161       Br168   1.933       .  S
C162        C163   1.413       .  A
C162       Br167   1.928       .  S
C163        C164   1.414       .  A
C164       Br165   1.933       .  S
C169        C170   1.409       .  A
C169        C174   1.408       .  A
C169       Br176   1.926       .  S
C170        C171   1.409       .  A
C171        C172   1.407       .  A
C171       Br178   1.929       .  S
C172        C173   1.411       .  A
C172       Br177   1.930       .  S
C173        C174   1.409       .  A
C174       Br175   1.927       .  S
C179        C180   1.409   1_655  A
C179        C184   1.410       .  A
C179       Br186   1.928       .  S
C180        C817   1.410       .  A
C181        C182   1.411       .  A
C181        C816   1.410       .  A
C181       Br188   1.929       .  S
C182        C183   1.410       .  A
C182       Br187   1.928       .  S
C183        C820   1.409       .  A
C184        C819   1.409       .  A
C184       Br185   1.928       .  S
C189        C194   1.410       .  A
C189        C826   1.410       .  A
C189       Br196   1.927       .  S
C190        C191   1.408       .  A
C190        C825   1.409       .  A
C191        C192   1.409       .  A
C191       Br198   1.928       .  S
C192        C829   1.409       .  A
C192       Br197   1.926       .  S
C193        C194   1.409       .  A
C193        C828   1.409   1_455  A
C194       Br195   1.928       .  S
C199        C200   1.411       .  A
C199        C204   1.409       .  A
C199       Br206   1.930       .  S
C200        C201   1.412   1_556  A
C201        C202   1.408       .  A
C201       Br208   1.928       .  S
C202        C203   1.409       .  A
C202       Br207   1.933       .  S
C203        C204   1.409   1_554  A
C204       Br205   1.929       .  S
C209        C210   1.412       .  A
C209        C214   1.410       .  A
C209       Br216   1.924       .  S
C210        C211   1.412   1_554  A
C211        C212   1.410       .  A
C211       Br218   1.921       .  S
C212        C213   1.410   1_556  A
C212       Br217   1.931       .  S
C213        C214   1.411       .  A
C214       Br215   1.931       .  S
C219        C220   1.409       .  A
C219        C224   1.411       .  A
C219       Br226   1.926       .  S
C220        C221   1.410       .  A
C221        C222   1.404       .  A
C221       Br228   1.936       .  S
C222        C223   1.411       .  A
C222       Br227   1.934       .  S
C223        C224   1.409       .  A
C224       Br225   1.928       .  S
C229        C230   1.409       .  A
C229        C234   1.403       .  A
C229       Br236   1.936       .  S
C230        C231   1.411       .  A
C231        C232   1.415       .  A
C231       Br238   1.928       .  S
C232        C233   1.412       .  A
C232       Br237   1.927       .  S
C233        C234   1.412       .  A
C234       Br235   1.933       .  S
C239        C240   1.413       .  A
C239        C244   1.408       .  A
C239       Br246   1.934       .  S
C240        C241   1.414       .  A
C241        C242   1.411       .  A
C241       Br248   1.931       .  S
C242        C243   1.414       .  A
C242       Br247   1.935       .  S
C243        C244   1.413       .  A
C244       Br245   1.935       .  S
C249        C250   1.414       .  A
C249        C254   1.407       .  A
C249       Br256   1.934       .  S
C250        C251   1.415       .  A
C251        C252   1.408       .  A
C251       Br258   1.934       .  S
C252        C253   1.411       .  A
C252       Br257   1.935       .  S
C253        C254   1.410       .  A
C254       Br255   1.933       .  S
C259        C260   1.416       .  A
C259        C264   1.409       .  A
C259       Br266   1.934       .  S
C260        C261   1.418       .  A
C261        C262   1.411       .  A
C261       Br268   1.934       .  S
C262        C263   1.410       .  A
C262       Br267   1.933       .  S
C263        C264   1.411       .  A
C264       Br265   1.934       .  S
C269        C270   1.413       .  A
C269        C274   1.408       .  A
C269       Br276   1.934       .  S
C270        C271   1.413       .  A
C271        C272   1.408       .  A
C271       Br278   1.933       .  S
C272        C273   1.411       .  A
C272       Br277   1.933       .  S
C273        C274   1.412       .  A
C274       Br275   1.932       .  S
C279        C280   1.412       .  A
C279        C284   1.414       .  A
C279       Br286   1.929       .  S
C280        C281   1.414       .  A
C281        C282   1.401       .  A
C281       Br288   1.939       .  S
C282        C283   1.412       .  A
C282       Br287   1.939       .  S
C283        C284   1.413       .  A
C284       Br285   1.927   1_556  S
C289        C290   1.411       .  A
C289        C294   1.399       .  A
C289       Br296   1.940       .  S
C290        C291   1.411       .  A
C291        C292   1.413       .  A
C291       Br298   1.930   1_554  S
C292        C293   1.415       .  A
C292       Br297   1.929       .  S
C293        C294   1.413       .  A
C294       Br295   1.938       .  S
C299        C300   1.414       .  A
C299        C304   1.407       .  A
C299       Br306   1.931       .  S
C300        C301   1.413   1_554  A
C301        C302   1.410       .  A
C301       Br308   1.932       .  S
C302        C303   1.413   1_556  A
C302       Br307   1.931       .  S
C303        C304   1.411       .  A
C304       Br305   1.934       .  S
C309        C310   1.409   1_556  A
C309        C314   1.412       .  A
C309       Br316   1.932       .  S
C310        C311   1.408       .  A
C311        C312   1.409       .  A
C311       Br318   1.931       .  S
C312        C313   1.419       .  A
C312       Br317   1.936       .  S
C313        C314   1.419   1_554  A
C314       Br315   1.931       .  S
O319        C335   1.274       .  A
O319       Zn325   2.025       .  S
C320        O336   1.274       .  A
C320        O333   1.273       .  A
C320        C588   1.476       .  S
O321        C334   1.273   1_556  A
O321       Cd328   2.064       .  S
O322        C340   1.275       .  A
O322       Cd331   2.074       .  S
O323        C337   1.273   1_556  A
O323       Cd327   2.064       .  S
O324        C335   1.274   1_556  A
O324       Cd327   2.067       .  S
Zn325       O336   2.019       .  S
Zn325       O338   1.991       .  S
Zn325       O330   1.930       .  S
O326        C337   1.273       .  A
O326       Cd331   2.046       .  S
Cd327       O329   2.068       .  S
Cd327       O330   2.008   1_556  S
Cd328       O332   2.064       .  S
Cd328       O341   2.074       .  S
Cd328       O330   2.007   1_556  S
O329        C339   1.273       .  A
O330       Cd331   1.985       .  S
Cd331       O333   2.066       .  S
O332        C339   1.273       .  A
C334        O338   1.273       .  A
C334        C611   1.473       .  S
C335        C631   1.480       .  S
C337        C601   1.466       .  S
C339        C581   1.475       .  S
C340        O341   1.274   1_554  A
C340        C621   1.481       .  S
O342        C358   1.275       .  A
O342       Zn348   2.029       .  S
C343        O359   1.275       .  A
C343        O356   1.274       .  A
C343        C578   1.494       .  S
O344        C357   1.274       .  A
O344       Cd351   2.067       .  S
O345        C363   1.273       .  A
O345       Cd354   2.064       .  S
O346        C360   1.275       .  A
O346       Cd350   2.069       .  S
O347        C358   1.273       .  A
O347       Cd350   2.066       .  S
Zn348       O359   2.037       .  S
Zn348       O361   2.019       .  S
Zn348       O353   1.941       .  S
O349        C360   1.274       .  A
O349       Cd354   2.060       .  S
Cd350       O352   2.063       .  S
Cd350       O353   2.002       .  S
Cd351       O355   2.075       .  S
Cd351       O364   2.078       .  S
Cd351       O353   2.006       .  S
O352        C362   1.273       .  A
O353       Cd354   1.990       .  S
Cd354       O356   2.061       .  S
O355        C362   1.275       .  A
C357        O361   1.276       .  A
C357        C548   1.470       .  S
C358        C571   1.480       .  S
C360        C538   1.467       .  S
C362        C591   1.488       .  S
C363        O364   1.275       .  A
C363        C561   1.484       .  S
O365        C381   1.276   1_556  A
O365       Zn371   2.023       .  S
C366        O382   1.277       .  A
C366       O1015   1.276   1_455  A
C366        C498   1.483       .  S
O367        C380   1.272       .  A
O367       Cd374   2.064   1_455  S
O368        C386   1.273       .  A
O368       Cd377   2.058       .  S
O369        C383   1.277   1_554  A
O369      Cd1009   2.094       .  S
O370        C381   1.275       .  A
O370       Cd373   2.083   1_455  S
Zn371       O382   2.045       .  S
Zn371       O384   2.025       .  S
Zn371       O376   1.946   1_556  S
O372        C383   1.274       .  A
O372       Cd377   2.072       .  S
Cd373      O1005   2.087       .  S
Cd373      O1011   2.077   1_655  S
Cd373       O376   2.013   1_655  S
Cd374      O1014   2.066       .  S
Cd374      O1023   2.072       .  S
Cd374       O376   2.010   1_655  S
O375        C385   1.276       .  A
O375      Cd1009   2.082       .  S
O376      Cd1013   1.995   1_454  S
Cd377       O379   2.070       .  S
Cd377      O1012   1.997       .  S
O378        C385   1.276       .  A
O378      Cd1010   2.084       .  S
O379       C1002   1.274       .  A
C380        O384   1.274   1_554  A
C380        C521   1.471       .  S
C381        C618   1.491       .  S
C383        C531   1.488       .  S
C385        C508   1.479       .  S
C386        O387   1.277   1_556  A
C386        C628   1.490   1_556  S
O387      Cd1010   2.086       .  S
O388        C404   1.276       .  A
O388       Zn394   2.040       .  S
C389        O405   1.276       .  A
C389        O402   1.276       .  A
C389        C568   1.480       .  S
O390        C403   1.277       .  A
O390       Cd397   2.091       .  S
O391        C409   1.275       .  A
O391      Cd1036   2.073       .  S
O392        C406   1.274       .  A
O392       Cd396   2.065       .  S
O393       C1040   1.273   1_455  A
O393       Cd396   2.068       .  S
Zn394       O405   2.024       .  S
Zn394       O407   2.030       .  S
Zn394       O399   1.949       .  S
O395        C406   1.275       .  A
O395      Cd1036   2.085   1_455  S
Cd396       O398   2.059       .  S
Cd396      O1035   1.994   1_455  S
Cd397      O1037   2.086       .  S
Cd397      O1046   2.090       .  S
Cd397       O399   2.015       .  S
O398        C408   1.274       .  A
O399      Cd1032   1.995       .  S
O399       Cd400   2.011       .  S
Cd400      O1027   2.082       .  S
Cd400      O1031   2.089       .  S
Cd400       O402   2.076       .  S
O401        C408   1.277       .  A
O401      Cd1033   2.088   1_455  S
C403        O407   1.276       .  A
C403        C488   1.483       .  S
C404       O1029   1.272       .  A
C404        C501   1.477       .  S
C406        C478   1.475       .  S
C408        C558   1.482       .  S
C409        O410   1.276   1_655  A
C409        C511   1.477       .  S
O410      Cd1033   2.084   1_455  S
O411        C427   1.273       .  A
O411       Zn417   2.012       .  S
C412        O428   1.272       .  A
C412        C458   1.467       .  S
O413        C426   1.274   1_554  A
O413       Cd420   2.077       .  S
O414        C432   1.270   1_556  A
O414       Cd423   2.044       .  S
O415        C429   1.274   1_554  A
O416        C427   1.281   1_554  A
O416       Cd419   2.113       .  S
Zn417       O428   2.012       .  S
Zn417       O430   1.989       .  S
Zn417       O422   1.929       .  S
O418        C429   1.270       .  A
O418       Cd423   2.030       .  S
Cd419       O421   2.089       .  S
Cd419       O422   2.016   1_554  S
Cd420       O424   2.069       .  S
Cd420       O422   2.015   1_554  S
Cd423       O425   2.045       .  S
C426        O430   1.272       .  A
C426        C608   1.474   1_556  S
C427        C528   1.489       .  S
C429        C598   1.478       .  S
C432        O433   1.278       .  A
C432        C518   1.473       .  S
O434        C450   1.272       .  A
O434       Zn440   2.008       .  S
C435        O451   1.272       .  A
O436        C449   1.278       .  A
O436       Cd443   2.097   1_565  S
O437        C455   1.274       .  A
O437       Cd446   2.058       .  S
O438        C452   1.278       .  A
O439        C450   1.273       .  A
O439       Cd442   2.071       .  S
Zn440       O451   2.005       .  S
Zn440       O453   2.004       .  S
Zn440       O445   1.939       .  S
O441        C452   1.274       .  A
O441       Cd446   2.072       .  S
Cd442       O445   2.007       .  S
Cd443       O445   2.009   1_545  S
O444        C454   1.275       .  A
Cd446       O448   2.066       .  S
O447        C454   1.276       .  A
C449        O453   1.272       .  A
C449        C481   1.476       .  S
C450        C541   1.468       .  S
C452        C491   1.483       .  S
C454        C468   1.500       .  S
C455        O456   1.276       .  A
C455        C551   1.474       .  S
C457        C462   1.408       .  A
C457       Br464   1.931       .  S
C458        C459   1.408       .  A
C459        C460   1.407       .  A
C459       Br466   1.930       .  S
C460        C461   1.408       .  A
C460       Br465   1.929       .  S
C462       Br463   1.928       .  S
C467        C468   1.419       .  A
C467        C472   1.412       .  A
C467       Br474   1.938       .  S
C469        C470   1.410       .  A
C469       Br476   1.937       .  S
C470       Br475   1.935       .  S
C471        C472   1.420       .  A
C472       Br473   1.936       .  S
C477        C478   1.408       .  A
C477        C482   1.410       .  A
C477       Br484   1.929       .  S
C478        C479   1.409       .  A
C479        C480   1.408       .  A
C479       Br486   1.929       .  S
C480        C481   1.409       .  A
C480       Br485   1.929       .  S
C481        C482   1.410       .  A
C482       Br483   1.925       .  S
C487        C488   1.410       .  A
C487        C492   1.412       .  A
C487       Br494   1.928       .  S
C488        C489   1.410       .  A
C489        C490   1.410       .  A
C489       Br496   1.930       .  S
C490        C491   1.410       .  A
C490       Br495   1.927       .  S
C491        C492   1.410       .  A
C492       Br493   1.928       .  S
C497        C498   1.410   1_655  A
C497        C502   1.410       .  A
C497       Br504   1.928       .  S
C498       C1135   1.410       .  A
C499       C1134   1.409       .  A
C499        C500   1.409       .  A
C499       Br506   1.928       .  S
C500        C501   1.410       .  A
C500       Br505   1.929       .  S
C501       C1138   1.409       .  A
C502       C1137   1.411   1_655  A
C502       Br503   1.930       .  S
C507       C1144   1.408   1_455  A
C507        C512   1.408       .  A
C507       Br514   1.929       .  S
C508       C1143   1.410       .  A
C508        C509   1.408       .  A
C509        C510   1.409       .  A
C509       Br516   1.928       .  S
C510       C1147   1.410       .  A
C510       Br515   1.926       .  S
C511       C1146   1.409       .  A
C511        C512   1.410   1_655  A
C512       Br513   1.925       .  S
C517        C518   1.409   1_556  A
C517        C522   1.408       .  A
C517       Br524   1.928       .  S
C518        C519   1.409       .  A
C519        C520   1.406       .  A
C519       Br526   1.928       .  S
C520        C521   1.408       .  A
C520       Br525   1.931       .  S
C521        C522   1.407   1_554  A
C522       Br523   1.927       .  S
C527        C528   1.411   1_554  A
C527        C532   1.411       .  A
C527       Br534   1.926       .  S
C528        C529   1.413       .  A
C529        C530   1.413       .  A
C529       Br536   1.930       .  S
C530        C531   1.413       .  A
C530       Br535   1.931       .  S
C531        C532   1.413   1_556  A
C532       Br533   1.932       .  S
C537        C538   1.408       .  A
C537        C542   1.408       .  A
C537       Br544   1.928       .  S
C538        C539   1.408       .  A
C539        C540   1.403       .  A
C539       Br546   1.932       .  S
C540        C541   1.408       .  A
C540       Br545   1.931       .  S
C541        C542   1.408       .  A
C542       Br543   1.927       .  S
C547        C548   1.407       .  A
C547        C552   1.401       .  A
C547       Br554   1.933       .  S
C548        C549   1.409       .  A
C549        C550   1.413       .  A
C549       Br556   1.928       .  S
C550        C551   1.411       .  A
C550       Br555   1.926       .  S
C551        C552   1.408       .  A
C552       Br553   1.932       .  S
C557        C558   1.411       .  A
C557        C562   1.409       .  A
C557       Br564   1.933       .  S
C558        C559   1.411       .  A
C559        C560   1.409       .  A
C559       Br566   1.928       .  S
C560        C561   1.414       .  A
C560       Br565   1.934       .  S
C561        C562   1.414       .  A
C562       Br563   1.933       .  S
C567        C568   1.411       .  A
C567        C572   1.410       .  A
C567       Br574   1.930       .  S
C568        C569   1.411       .  A
C569        C570   1.408       .  A
C569       Br576   1.930       .  S
C570        C571   1.412       .  A
C570       Br575   1.934       .  S
C571        C572   1.410       .  A
C572       Br573   1.929       .  S
C577        C578   1.422       .  A
C577        C582   1.409       .  A
C577       Br584   1.936       .  S
C578        C579   1.420       .  A
C579        C580   1.409       .  A
C579       Br586   1.933       .  S
C580        C581   1.406       .  A
C580       Br585   1.934       .  S
C581        C582   1.406       .  A
C582       Br583   1.935       .  S
C587        C588   1.408       .  A
C587        C592   1.409       .  A
C587       Br594   1.934       .  S
C588        C589   1.408       .  A
C589        C590   1.408       .  A
C589       Br596   1.933       .  S
C590        C591   1.417       .  A
C590       Br595   1.935       .  S
C591        C592   1.418       .  A
C592       Br593   1.934       .  S
C597        C598   1.416   1_554  A
C597        C602   1.410       .  A
C597       Br604   1.931       .  S
C598        C599   1.418       .  A
C599        C600   1.397       .  A
C599       Br606   1.940       .  S
C600        C601   1.407   1_556  A
C600       Br605   1.940       .  S
C601        C602   1.407       .  A
C602       Br603   1.928       .  S
C607        C608   1.411       .  A
C607        C612   1.396       .  A
C607       Br614   1.938       .  S
C608        C609   1.412   1_554  A
C609        C610   1.413   1_556  A
C609       Br616   1.929       .  S
C610        C611   1.413       .  A
C610       Br615   1.931   1_554  S
C611        C612   1.410       .  A
C612       Br613   1.939       .  S
C617        C618   1.419       .  A
C617        C622   1.411       .  A
C617       Br624   1.931       .  S
C618        C619   1.415   1_554  A
C619        C620   1.408       .  A
C619       Br626   1.934       .  S
C620        C621   1.411   1_556  A
C620       Br625   1.933       .  S
C621        C622   1.408       .  A
C622       Br623   1.932       .  S
C627        C628   1.417   1_556  A
C627        C632   1.408       .  A
C627       Br634   1.936       .  S
C628        C629   1.418       .  A
C629        C630   1.411       .  A
C629       Br636   1.932       .  S
C630        C631   1.409       .  A
C630       Br635   1.932       .  S
C631        C632   1.411   1_554  A
C632       Br633   1.935       .  S
O637        C653   1.272       .  A
O637       Zn643   2.014       .  S
C638        O654   1.274       .  A
C638        O651   1.275       .  A
C638        C906   1.487       .  S
O639        C652   1.275   1_556  A
O639       Cd646   2.075       .  S
O640        C658   1.275       .  A
O640       Cd649   2.071       .  S
O641        C655   1.274       .  A
O641       Cd645   2.071       .  S
O642        C653   1.274   1_556  A
O642       Cd645   2.072       .  S
Zn643       O654   2.016       .  S
Zn643       O656   2.005       .  S
Zn643       O648   1.931       .  S
O644        C655   1.274   1_554  A
O644       Cd649   2.053       .  S
Cd645       O647   2.067       .  S
Cd645       O648   2.007   1_556  S
Cd646       O650   2.077       .  S
Cd646       O659   2.086       .  S
Cd646       O648   2.010   1_556  S
O647        C657   1.274       .  A
O648       Cd649   1.989       .  S
Cd649       O651   2.073       .  S
O650        C657   1.275       .  A
C652        O656   1.275       .  A
C652        C929   1.479   1_554  S
C653        C949   1.479       .  S
C655        C919   1.468       .  S
C657        C899   1.482       .  S
C658        O659   1.277   1_554  A
C658        C939   1.488       .  S
O660        C676   1.274       .  A
O660       Zn666   2.020       .  S
C661        O677   1.276       .  A
C661        O674   1.274       .  A
C661        C896   1.483       .  S
O662        C675   1.276       .  A
O662       Cd669   2.082       .  S
O663        C681   1.274       .  A
O663       Cd672   2.067       .  S
O664        C678   1.275       .  A
O664       Cd668   2.079       .  S
O665        C676   1.275       .  A
O665       Cd668   2.076       .  S
Zn666       O677   2.030       .  S
Zn666       O679   2.019       .  S
Zn666       O671   1.947       .  S
O667        C678   1.273       .  A
O667       Cd672   2.053       .  S
Cd668       O670   2.074       .  S
Cd668       O671   2.013       .  S
Cd669       O673   2.082       .  S
Cd669       O682   2.102       .  S
Cd669       O671   2.011       .  S
O670        C680   1.275       .  A
O671       Cd672   1.992       .  S
Cd672       O674   2.066       .  S
O673        C680   1.277       .  A
C675        O679   1.274       .  A
C675        C866   1.475       .  S
C676        C889   1.480       .  S
C678        C856   1.469       .  S
C680        C909   1.485       .  S
C681        O682   1.278       .  A
C681        C879   1.496       .  S
O683        C699   1.276   1_556  A
O683       Zn689   2.024       .  S
C684        O700   1.276       .  A
C684        C816   1.477       .  S
O685        C698   1.274       .  A
O685       Cd692   2.075       .  S
O686        C704   1.275   1_556  A
O686       Cd695   2.065       .  S
O687        C701   1.275       .  A
O688        C699   1.276       .  A
O688       Cd691   2.085       .  S
Zn689       O700   2.035       .  S
Zn689       O702   2.016       .  S
Zn689       O694   1.947   1_556  S
O690        C701   1.274   1_556  A
O690       Cd695   2.068       .  S
Cd691       O694   2.017       .  S
Cd692       O694   2.012       .  S
O693        C703   1.275       .  A
Cd695       O697   2.081       .  S
O696        C703   1.275       .  A
C698        O702   1.273   1_554  A
C698        C839   1.472       .  S
C699        C936   1.489       .  S
C701        C849   1.478       .  S
C703        C826   1.476       .  S
C704        O705   1.275       .  A
C704        C946   1.490       .  S
O706        C722   1.275       .  A
O706       Zn712   2.032       .  S
C707        O723   1.275       .  A
C707        O720   1.277       .  A
C707        C886   1.484       .  S
O708        C721   1.276       .  A
O708       Cd715   2.083       .  S
O709        C727   1.276       .  A
O710        C724   1.275       .  A
O710       Cd714   2.072       .  S
O711       Cd714   2.080       .  S
Zn712       O723   2.018       .  S
Zn712       O725   2.016       .  S
Zn712       O717   1.949       .  S
O713        C724   1.274       .  A
Cd714       O716   2.075       .  S
Cd715       O717   2.015       .  S
O716        C726   1.277       .  A
O717       Cd718   2.016       .  S
Cd718       O720   2.087       .  S
O719        C726   1.277       .  A
C721        O725   1.273       .  A
C721        C806   1.476       .  S
C722        C819   1.477       .  S
C724        C796   1.478       .  S
C726        C876   1.490       .  S
C727        O728   1.276       .  A
C727        C829   1.479       .  S
O729        C745   1.272   1_556  A
O729       Zn735   2.001       .  S
C730        O746   1.273       .  A
C730       O1061   1.271   1_545  A
C730        C776   1.469       .  S
O731        C744   1.276   1_554  A
O731       Cd738   2.084       .  S
O732        C750   1.271       .  A
O732       Cd741   2.049       .  S
O733        C747   1.278   1_554  A
O733      Cd1055   2.093       .  S
O734        C745   1.278       .  A
O734       Cd737   2.095   1_545  S
Zn735       O746   2.022       .  S
Zn735       O748   1.993       .  S
Zn735       O740   1.928       .  S
O736        C747   1.268       .  A
O736       Cd741   2.035       .  S
Cd737      O1051   2.087       .  S
Cd737       O739   2.080       .  S
Cd737       O740   2.010   1_564  S
Cd738       O742   2.072       .  S
Cd738      O1069   2.099   1_545  S
Cd738       O740   2.008   1_554  S
O739       C1067   1.276   1_565  A
O740      Cd1059   1.982   1_545  S
Cd741       O743   2.045       .  S
Cd741      O1058   1.978       .  S
O742       C1067   1.274       .  A
O743       C1048   1.269       .  A
C744        O748   1.272       .  A
C744        C926   1.480       .  S
C745        C846   1.477       .  S
C747        C916   1.486       .  S
C749       O1057   1.275       .  A
C749       O1060   1.276       .  A
C749       C1107   1.491       .  S
C750        O751   1.278   1_556  A
C750        C836   1.473   1_556  S
O751      Cd1056   2.099       .  S
O752        C768   1.272       .  A
O752       Zn758   1.995       .  S
C753        O769   1.271       .  A
C753       O1084   1.272       .  A
C753       C1097   1.479       .  S
O754        C767   1.277       .  A
O754       Cd761   2.092       .  S
O755        C773   1.271       .  A
O755       Cd764   2.050       .  S
O756        C770   1.278       .  A
O756      Cd1078   2.097   1_545  S
O757        C768   1.275       .  A
O757       Cd760   2.078       .  S
Zn758       O769   2.002       .  S
Zn758       O771   1.997       .  S
Zn758       O763   1.932       .  S
O759        C770   1.271       .  A
O759       Cd764   2.049       .  S
Cd760      O1074   2.099       .  S
Cd760      O1080   2.079       .  S
Cd760       O763   2.011       .  S
Cd761      O1083   2.081       .  S
Cd761      O1092   2.073       .  S
Cd761       O763   2.010       .  S
O762        C772   1.275       .  A
O762      Cd1078   2.081       .  S
O763      Cd1082   1.988       .  S
Cd764       O766   2.056       .  S
Cd764      O1081   1.993       .  S
O765        C772   1.277   1_545  A
O765      Cd1079   2.083       .  S
O766       C1071   1.271       .  A
C767        O771   1.271       .  A
C767        C799   1.481       .  S
C768        C859   1.469       .  S
C770        C809   1.474       .  S
C772        C786   1.499       .  S
C773        O774   1.277       .  A
C773        C869   1.472       .  S
O774      Cd1079   2.092       .  S
C775       C1094   1.409       .  A
C775        C780   1.406       .  A
C775       Br782   1.934       .  S
C776       C1093   1.408       .  A
C776        C777   1.409   1_545  A
C777        C778   1.406   1_565  A
C777       Br784   1.929       .  S
C778        C779   1.407       .  A
C778       Br783   1.930   1_545  S
C779       C1071   1.469       .  S
C779       C1098   1.408       .  A
C780       C1097   1.415       .  A
C780       Br781   1.933       .  S
C785        C786   1.420   1_545  A
C785        C790   1.412       .  A
C785       Br792   1.936       .  S
C786       C1105   1.417       .  A
C787       C1104   1.418       .  A
C787        C788   1.411       .  A
C787       Br794   1.929       .  S
C788       C1107   1.414       .  A
C788       Br793   1.939       .  S
C789       C1067   1.492   1_565  S
C789       C1106   1.414       .  A
C789        C790   1.414   1_565  A
C790       Br791   1.934       .  S
C795        C796   1.410       .  A
C795        C800   1.409       .  A
C795       Br802   1.930       .  S
C796        C797   1.410       .  A
C797        C798   1.406       .  A
C797       Br804   1.933       .  S
C798        C799   1.410       .  A
C798       Br803   1.924       .  S
C799        C800   1.413       .  A
C800       Br801   1.932       .  S
C805        C806   1.410       .  A
C805        C810   1.409       .  A
C805       Br812   1.928       .  S
C806        C807   1.410       .  A
C807        C808   1.408       .  A
C807       Br814   1.931       .  S
C808        C809   1.409       .  A
C808       Br813   1.930       .  S
C809        C810   1.409       .  A
C810       Br811   1.930       .  S
C815        C816   1.407       .  A
C815        C820   1.408       .  A
C815       Br822   1.928       .  S
C817        C818   1.410       .  A
C817       Br824   1.927       .  S
C818        C819   1.408   1_455  A
C818       Br823   1.929       .  S
C820       Br821   1.926       .  S
C825        C830   1.410       .  A
C825       Br832   1.928       .  S
C826        C827   1.408   1_455  A
C827        C828   1.408       .  A
C827       Br834   1.930       .  S
C828       Br833   1.924       .  S
C829        C830   1.410       .  A
C830       Br831   1.928       .  S
C835        C836   1.409   1_556  A
C835        C840   1.410       .  A
C835       Br842   1.927       .  S
C836        C837   1.410       .  A
C837        C838   1.406       .  A
C837       Br844   1.931       .  S
C838        C839   1.408       .  A
C838       Br843   1.931       .  S
C839        C840   1.409   1_554  A
C840       Br841   1.927       .  S
C845        C846   1.411       .  A
C845        C850   1.409       .  A
C845       Br852   1.930       .  S
C846        C847   1.409   1_554  A
C847        C848   1.408       .  A
C847       Br854   1.930       .  S
C848        C849   1.410   1_556  A
C848       Br853   1.929       .  S
C849        C850   1.411       .  A
C850       Br851   1.932       .  S
C855        C856   1.409       .  A
C855        C860   1.411       .  A
C855       Br862   1.927       .  S
C856        C857   1.409       .  A
C857        C858   1.401       .  A
C857       Br864   1.935       .  S
C858        C859   1.408       .  A
C858       Br863   1.934       .  S
C859        C860   1.409       .  A
C860       Br861   1.928       .  S
C865        C866   1.410       .  A
C865        C870   1.407       .  A
C865       Br872   1.926       .  S
C866        C867   1.408       .  A
C867        C868   1.409       .  A
C867       Br874   1.927       .  S
C868        C869   1.409       .  A
C868       Br873   1.927       .  S
C869        C870   1.408       .  A
C870       Br871   1.932       .  S
C875        C876   1.411       .  A
C875        C880   1.410       .  A
C875       Br882   1.934       .  S
C876        C877   1.414       .  A
C877        C878   1.414       .  A
C877       Br884   1.933       .  S
C878        C879   1.418       .  A
C878       Br883   1.933       .  S
C879        C880   1.417       .  A
C880       Br881   1.933       .  S
C885        C886   1.412       .  A
C885        C890   1.410       .  A
C885       Br892   1.931       .  S
C886        C887   1.413       .  A
C887        C888   1.409       .  A
C887       Br894   1.926       .  S
C888        C889   1.411       .  A
C888       Br893   1.935       .  S
C889        C890   1.410       .  A
C890       Br891   1.929       .  S
C895        C896   1.413       .  A
C895        C900   1.407       .  A
C895       Br902   1.933       .  S
C896        C897   1.413       .  A
C897        C898   1.410       .  A
C897       Br904   1.931       .  S
C898        C899   1.412       .  A
C898       Br903   1.932       .  S
C899        C900   1.412       .  A
C900       Br901   1.934       .  S
C905        C906   1.415       .  A
C905        C910   1.412       .  A
C905       Br912   1.933       .  S
C906        C907   1.414       .  A
C907        C908   1.407       .  A
C907       Br914   1.936       .  S
C908        C909   1.411       .  A
C908       Br913   1.927       .  S
C909        C910   1.413       .  A
C910       Br911   1.933       .  S
C915        C916   1.416       .  A
C915        C920   1.411       .  A
C915       Br922   1.930       .  S
C916        C917   1.422       .  A
C917        C918   1.400       .  A
C917       Br924   1.939       .  S
C918        C919   1.404       .  A
C918       Br923   1.939       .  S
C919        C920   1.406       .  A
C920       Br921   1.927   1_556  S
C925        C926   1.414       .  A
C925        C930   1.401       .  A
C925       Br932   1.937   1_556  S
C926        C927   1.412       .  A
C927        C928   1.413       .  A
C927       Br934   1.930       .  S
C928        C929   1.412       .  A
C928       Br933   1.929       .  S
C929        C930   1.411       .  A
C930       Br931   1.938       .  S
C935        C936   1.415       .  A
C935        C940   1.412       .  A
C935       Br942   1.933       .  S
C936        C937   1.412   1_554  A
C937        C938   1.409       .  A
C937       Br944   1.932       .  S
C938        C939   1.414   1_556  A
C938       Br943   1.932       .  S
C939        C940   1.414       .  A
C940       Br941   1.934       .  S
C945        C946   1.416   1_556  A
C945        C950   1.406       .  A
C945       Br952   1.935       .  S
C946        C947   1.419       .  A
C947        C948   1.412       .  A
C947       Br954   1.933       .  S
C948        C949   1.410       .  A
C948       Br953   1.932       .  S
C949        C950   1.409   1_554  A
C950       Br951   1.934       .  S
O955        C971   1.275       .  A
O955       Zn961   2.025       .  S
C956        O972   1.275       .  A
C956        O969   1.275       .  A
C956       C1224   1.488       .  S
O957        C970   1.275   1_556  A
O957       Cd964   2.079       .  S
O958        C976   1.273       .  A
O958       Cd967   2.058       .  S
O959        C973   1.273       .  A
O959       Cd963   2.068       .  S
O960        C971   1.273   1_556  A
O960       Cd963   2.061       .  S
Zn961       O972   2.027       .  S
Zn961       O974   2.007       .  S
Zn961       O966   1.932       .  S
O962        C973   1.274   1_554  A
O962       Cd967   2.059       .  S
Cd963       O965   2.060       .  S
Cd963       O966   2.004   1_556  S
Cd964       O968   2.066       .  S
Cd964       O977   2.078       .  S
Cd964       O966   2.010   1_556  S
O965        C975   1.273       .  A
O966       Cd967   1.987       .  S
Cd967       O969   2.072       .  S
O968        C975   1.274       .  A
C970        O974   1.274       .  A
C970       C1247   1.483       .  S
C971       C1267   1.479       .  S
C973       C1237   1.471       .  S
C975       C1217   1.479       .  S
C976        O977   1.275   1_554  A
C976       C1257   1.479       .  S
O978        C994   1.274       .  A
O978       Zn984   2.009       .  S
C979        O995   1.275       .  A
C979        O992   1.272       .  A
C979       C1214   1.477       .  S
O980        C993   1.274       .  A
O980       Cd987   2.073       .  S
O981        C999   1.272       .  A
O981       Cd990   2.051       .  S
O982        C996   1.276       .  A
O982       Cd986   2.092       .  S
O983        C994   1.276       .  A
O983       Cd986   2.078       .  S
Zn984       O995   2.027       .  S
Zn984       O997   2.025       .  S
Zn984       O989   1.944       .  S
O985        C996   1.272       .  A
O985       Cd990   2.052       .  S
Cd986       O988   2.085       .  S
Cd986       O989   2.009       .  S
Cd987       O991   2.071       .  S
Cd987      O1000   2.071       .  S
Cd987       O989   2.006       .  S
O988        C998   1.277       .  A
O989       Cd990   1.989       .  S
Cd990       O992   2.055       .  S
O991        C998   1.274       .  A
C993        O997   1.274       .  A
C993       C1184   1.473       .  S
C994       C1207   1.477       .  S
C996       C1174   1.474       .  S
C998       C1227   1.488       .  S
C999       O1000   1.275       .  A
C999       C1197   1.478       .  S
O1001      C1017   1.275       .  A
O1001     Zn1007   2.015       .  S
C1002      O1018   1.277       .  A
C1002      C1134   1.476       .  S
O1003      C1016   1.275       .  A
O1003     Cd1010   2.084       .  S
O1004      C1022   1.276   1_556  A
O1004     Cd1013   2.073       .  S
O1005      C1019   1.277       .  A
O1006      C1017   1.275   1_554  A
O1006     Cd1009   2.076       .  S
Zn1007     O1018   2.042       .  S
Zn1007     O1020   2.028       .  S
Zn1007     O1012   1.949       .  S
O1008      C1019   1.274   1_556  A
O1008     Cd1013   2.070       .  S
Cd1009     O1012   2.012   1_554  S
Cd1010     O1012   2.015   1_554  S
O1011      C1021   1.275   1_455  A
Cd1013     O1015   2.078       .  S
O1014      C1021   1.274       .  A
C1016      O1020   1.274   1_554  A
C1016      C1157   1.478       .  S
C1017      C1254   1.486       .  S
C1019      C1167   1.481       .  S
C1021      C1144   1.473       .  S
C1022      O1023   1.273       .  A
C1022      C1264   1.491       .  S
O1024      C1040   1.278       .  A
O1024     Zn1030   2.053       .  S
C1025      O1041   1.276       .  A
C1025      O1038   1.275       .  A
C1025      C1204   1.483       .  S
O1026      C1039   1.276       .  A
O1026     Cd1033   2.085       .  S
O1027      C1045   1.276       .  A
O1028      C1042   1.273       .  A
O1028     Cd1032   2.064       .  S
O1029     Cd1032   2.064       .  S
Zn1030     O1041   2.026       .  S
Zn1030     O1043   2.028       .  S
Zn1030     O1035   1.950       .  S
O1031      C1042   1.276       .  A
Cd1032     O1034   2.052       .  S
Cd1033     O1035   2.015       .  S
O1034      C1044   1.273       .  A
O1035     Cd1036   2.011       .  S
Cd1036     O1038   2.075       .  S
O1037      C1044   1.277       .  A
C1039      O1043   1.275       .  A
C1039      C1124   1.478       .  S
C1040      C1137   1.485   1_655  S
C1042      C1114   1.482       .  S
C1044      C1194   1.479       .  S
C1045      O1046   1.277       .  A
C1045      C1147   1.482       .  S
O1047      C1063   1.272       .  A
O1047     Zn1053   2.005       .  S
C1048      O1064   1.273       .  A
C1048      C1094   1.474       .  S
O1049      C1062   1.277   1_554  A
O1049     Cd1056   2.088       .  S
O1050      C1068   1.273   1_556  A
O1050     Cd1059   2.057       .  S
O1051      C1065   1.278   1_554  A
O1052      C1063   1.279   1_554  A
O1052     Cd1055   2.103       .  S
Zn1053     O1064   2.017       .  S
Zn1053     O1066   1.995       .  S
Zn1053     O1058   1.924       .  S
O1054      C1065   1.269       .  A
O1054     Cd1059   2.046       .  S
Cd1055     O1057   2.079       .  S
Cd1055     O1058   2.010   1_554  S
Cd1056     O1060   2.073       .  S
Cd1056     O1058   2.009   1_554  S
Cd1059     O1061   2.059       .  S
C1062      O1066   1.273       .  A
C1062      C1244   1.479       .  S
C1063      C1164   1.482   1_556  S
C1065      C1234   1.490       .  S
C1068      O1069   1.278       .  A
C1068      C1154   1.476       .  S
O1070      C1086   1.274       .  A
O1070     Zn1076   2.012       .  S
C1071      O1087   1.274   1_545  A
O1072      C1085   1.279       .  A
O1072     Cd1079   2.095   1_565  S
O1073      C1091   1.273       .  A
O1073     Cd1082   2.057       .  S
O1074      C1088   1.277       .  A
O1075      C1086   1.276       .  A
O1075     Cd1078   2.091       .  S
Zn1076     O1087   2.026       .  S
Zn1076     O1089   2.020       .  S
Zn1076     O1081   1.941   1_565  S
O1077      C1088   1.273       .  A
O1077     Cd1082   2.059       .  S
Cd1078     O1081   2.017   1_565  S
Cd1079     O1081   2.012       .  S
O1080      C1090   1.277       .  A
Cd1082     O1084   2.060       .  S
O1083      C1090   1.275       .  A
C1085      O1089   1.275       .  A
C1085      C1117   1.485       .  S
C1086      C1177   1.479       .  S
C1088      C1127   1.477       .  S
C1090      C1104   1.497       .  S
C1091      O1092   1.275       .  A
C1091      C1187   1.468       .  S
C1093      C1098   1.407       .  A
C1093     Br1100   1.929       .  S
C1094      C1095   1.412       .  A
C1095      C1096   1.406       .  A
C1095     Br1102   1.936       .  S
C1096      C1097   1.414       .  A
C1096     Br1101   1.937       .  S
C1098     Br1099   1.928       .  S
C1103      C1104   1.417       .  A
C1103      C1108   1.411       .  A
C1103     Br1110   1.938       .  S
C1105      C1106   1.410       .  A
C1105     Br1112   1.930       .  S
C1106     Br1111   1.939       .  S
C1107      C1108   1.415       .  A
C1108     Br1109   1.932       .  S
C1113      C1114   1.411       .  A
C1113      C1118   1.411       .  A
C1113     Br1120   1.930       .  S
C1114      C1115   1.410       .  A
C1115      C1116   1.409       .  A
C1115     Br1122   1.932       .  S
C1116      C1117   1.412       .  A
C1116     Br1121   1.925       .  S
C1117      C1118   1.412       .  A
C1118     Br1119   1.930       .  S
C1123      C1124   1.410       .  A
C1123      C1128   1.413       .  A
C1123     Br1130   1.927       .  S
C1124      C1125   1.409       .  A
C1125      C1126   1.406       .  A
C1125     Br1132   1.931       .  S
C1126      C1127   1.408       .  A
C1126     Br1131   1.930       .  S
C1127      C1128   1.410       .  A
C1128     Br1129   1.927       .  S
C1133      C1134   1.409       .  A
C1133      C1138   1.409       .  A
C1133     Br1140   1.929       .  S
C1135      C1136   1.412       .  A
C1135     Br1142   1.929       .  S
C1136      C1137   1.413       .  A
C1136     Br1141   1.930       .  S
C1138     Br1139   1.929       .  S
C1143      C1148   1.411       .  A
C1143     Br1150   1.929       .  S
C1144      C1145   1.408       .  A
C1145      C1146   1.407       .  A
C1145     Br1152   1.929       .  S
C1146     Br1151   1.924       .  S
C1147      C1148   1.411       .  A
C1148     Br1149   1.928       .  S
C1153      C1154   1.408   1_556  A
C1153      C1158   1.413       .  A
C1153     Br1160   1.927       .  S
C1154      C1155   1.409       .  A
C1155      C1156   1.407       .  A
C1155     Br1162   1.931       .  S
C1156      C1157   1.410       .  A
C1156     Br1161   1.931       .  S
C1157      C1158   1.410   1_554  A
C1158     Br1159   1.926       .  S
C1163      C1164   1.411       .  A
C1163      C1168   1.410       .  A
C1163     Br1170   1.927       .  S
C1164      C1165   1.411   1_554  A
C1165      C1166   1.410       .  A
C1165     Br1172   1.930       .  S
C1166      C1167   1.410   1_556  A
C1166     Br1171   1.928       .  S
C1167      C1168   1.411       .  A
C1168     Br1169   1.933       .  S
C1173      C1174   1.409       .  A
C1173      C1178   1.414       .  A
C1173     Br1180   1.927       .  S
C1174      C1175   1.409       .  A
C1175      C1176   1.403       .  A
C1175     Br1182   1.935       .  S
C1176      C1177   1.410       .  A
C1176     Br1181   1.933       .  S
C1177      C1178   1.412       .  A
C1178     Br1179   1.927       .  S
C1183      C1184   1.409       .  A
C1183      C1188   1.403       .  A
C1183     Br1190   1.927       .  S
C1184      C1185   1.409       .  A
C1185      C1186   1.409       .  A
C1185     Br1192   1.925       .  S
C1186      C1187   1.408       .  A
C1186     Br1191   1.928       .  S
C1187      C1188   1.406       .  A
C1188     Br1189   1.932       .  S
C1193      C1194   1.413       .  A
C1193      C1198   1.407       .  A
C1193     Br1200   1.933       .  S
C1194      C1195   1.411       .  A
C1195      C1196   1.407       .  A
C1195     Br1202   1.931       .  S
C1196      C1197   1.413       .  A
C1196     Br1201   1.935       .  S
C1197      C1198   1.411       .  A
C1198     Br1199   1.934       .  S
C1203      C1204   1.412       .  A
C1203      C1208   1.409       .  A
C1203     Br1210   1.930       .  S
C1204      C1205   1.414       .  A
C1205      C1206   1.407       .  A
C1205     Br1212   1.926       .  S
C1206      C1207   1.409       .  A
C1206     Br1211   1.935       .  S
C1207      C1208   1.410       .  A
C1208     Br1209   1.930       .  S
C1213      C1214   1.411       .  A
C1213      C1218   1.406       .  A
C1213     Br1220   1.934       .  S
C1214      C1215   1.410       .  A
C1215      C1216   1.407       .  A
C1215     Br1222   1.930       .  S
C1216      C1217   1.413       .  A
C1216     Br1221   1.934       .  S
C1217      C1218   1.414       .  A
C1218     Br1219   1.935       .  S
C1223      C1224   1.415       .  A
C1223      C1228   1.410       .  A
C1223     Br1230   1.932       .  S
C1224      C1225   1.414       .  A
C1225      C1226   1.410       .  A
C1225     Br1232   1.936       .  S
C1226      C1227   1.414       .  A
C1226     Br1231   1.930       .  S
C1227      C1228   1.412       .  A
C1228     Br1229   1.933       .  S
C1233      C1234   1.417       .  A
C1233      C1238   1.410       .  A
C1233     Br1240   1.931       .  S
C1234      C1235   1.423       .  A
C1235      C1236   1.404       .  A
C1235     Br1242   1.939       .  S
C1236      C1237   1.406       .  A
C1236     Br1241   1.940       .  S
C1237      C1238   1.406       .  A
C1238     Br1239   1.928   1_556  S
C1243      C1244   1.411   1_554  A
C1243      C1248   1.400       .  A
C1243     Br1250   1.937       .  S
C1244      C1245   1.411       .  A
C1245      C1246   1.415       .  A
C1245     Br1252   1.929       .  S
C1246      C1247   1.415   1_556  A
C1246     Br1251   1.929       .  S
C1247      C1248   1.413       .  A
C1248     Br1249   1.939       .  S
C1253      C1254   1.417   1_554  A
C1253      C1258   1.409       .  A
C1253     Br1260   1.933       .  S
C1254      C1255   1.414       .  A
C1255      C1256   1.408       .  A
C1255     Br1262   1.934       .  S
C1256      C1257   1.411   1_556  A
C1256     Br1261   1.933       .  S
C1257      C1258   1.410       .  A
C1258     Br1259   1.934       .  S
C1263      C1264   1.415   1_556  A
C1263      C1268   1.407       .  A
C1263     Br1270   1.935       .  S
C1264      C1265   1.420       .  A
C1265      C1266   1.411       .  A
C1265     Br1272   1.932       .  S
C1266      C1267   1.408       .  A
C1266     Br1271   1.933       .  S
C1267      C1268   1.411   1_554  A
C1268     Br1269   1.934       .  S
