geometry optimzed in LAMMPS
_audit_creation_date              2020-11-30 
_audit_creation_method            'lammps2cif' 
_symmetry_space_group_name_H-M    'P1' 
_symmetry_Int_Tables_number       1 
_symmetry_cell_setting            triclinic 
loop_ 
_symmetry_equiv_pos_as_xyz 
  x,y,z 
_cell_length_a                    23.80775062 
_cell_length_b                    23.90471787151447 
_cell_length_c                    41.445420769486546 
_cell_angle_alpha                 90.1500198889735 
_cell_angle_beta                  90.06575896201417 
_cell_angle_gamma                 77.02623940182505 
loop_ 
_atom_site_label 
_atom_site_type_symbol 
_atom_site_fract_x 
_atom_site_fract_y 
_atom_site_fract_z 
_atom_site_charge 
N1          N  0.94531125  0.93243576  0.00023883    -0.35800
N2          N  0.93485980  0.05603161  0.01082687    -0.56400
N3          N  0.05896883  0.03812625  0.99657084    -0.35800
N4          N  0.06990316  0.91371153  0.99033767    -0.56400
C5          C  0.89105108  0.94778498  0.01263004     0.27800
C6          C  0.96114105  0.87405239  0.00019171     0.27800
C7          C  0.04611625  0.09288939  0.00804178     0.27800
C8          C  0.11716549  0.01837498  0.99879009     0.27800
C9          C  0.87798834  0.05493363  0.01074027     0.36400
C10         C  0.93842358  0.11173745  0.00758935     0.36400
C11         C  0.06317362  0.86091189  0.98145880     0.36400
C12         C  0.12406617  0.91675925  0.98172212     0.36400
C13         C  0.87258204  0.89830337  0.02038893    -0.21100
C14         C  0.91646857  0.85229432  0.01269612    -0.21100
C15         C  0.09669454  0.10771873  0.01773141    -0.21100
C16         C  0.14113500  0.06097320  0.01208998    -0.21100
C17         C  0.84535111  0.11063348  0.00815471    -0.22200
C18         C  0.88333644  0.14608357  0.00518571    -0.22200
C19         C  0.11328352  0.83059261  0.96689265    -0.22200
C20         C  0.15194630  0.86562872  0.96741552    -0.22200
C21         C  0.85565996  0.00457034  0.01466580    -0.17500
C22         C  0.01323089  0.83918973  0.98764134    -0.17500
C23         C  0.14972813  0.96383305  0.98807031    -0.17500
C24         C  0.99081212  0.13151042  0.00826996    -0.17500
H25         H  0.83123466  0.89498812  0.02997489     0.15400
H26         H  0.91520844  0.80763604  0.01574924     0.15400
H27         H  0.10122135  0.14813732  0.02803137     0.15400
H28         H  0.18610120  0.05884056  0.01731516     0.15400
H29         H  0.79901529  0.12508985  0.00818115     0.13700
H30         H  0.87097505  0.19189966  0.00145967     0.13700
H31         H  0.12153147  0.78766435  0.95694336     0.13700
H32         H  0.19554604  0.85477259  0.95815358     0.13700
H33         H  0.96761005  0.95976448  0.98918781     0.26900
H34         H  0.03049361  0.01787434  0.98472586     0.26900
N35         N  0.94447712  0.94495358  0.49807616    -0.35800
N36         N  0.06764140  0.92722126  0.51233594    -0.56400
N37         N  0.05627059  0.05088108  0.50141828    -0.35800
N38         N  0.93107366  0.06971212  0.49110859    -0.56400
C39         C  0.95671857  0.89020835  0.50945931     0.27800
C40         C  0.88613202  0.96373907  0.49802133     0.27800
C41         C  0.11010752  0.03580117  0.51441270     0.27800
C42         C  0.03985030  0.10922108  0.50194336     0.27800
C43         C  0.06438080  0.87134176  0.50980423     0.36400
C44         C  0.12434813  0.92867052  0.51211172     0.36400
C45         C  0.87880171  0.06469583  0.47982959     0.36400
C46         C  0.93893753  0.12168581  0.48144350     0.36400
C47         C  0.90551509  0.87480267  0.51724376    -0.21100
C48         C  0.86134207  0.92078209  0.51001605    -0.21100
C49         C  0.12765197  0.08536142  0.52322289    -0.21100
C50         C  0.08367991  0.13118254  0.51548449    -0.21100
C51         C  0.11961551  0.83708263  0.50779324    -0.22200
C52         C  0.15738525  0.87307449  0.50999362    -0.22200
C53         C  0.85322077  0.11393753  0.46308664    -0.22200
C54         C  0.89117770  0.14988360  0.46408223    -0.22200
C55         C  0.01200280  0.85162493  0.51043327    -0.17500
C56         C  0.85403053  0.01638521  0.48491630    -0.17500
C57         C  0.98844436  0.14387116  0.48853469    -0.17500
C58         C  0.14608502  0.97930662  0.51604448    -0.17500
H59         H  0.90027024  0.83414327  0.52674410     0.15400
H60         H  0.81588618  0.92201514  0.51288053     0.15400
H61         H  0.16845811  0.08885277  0.53355582     0.15400
H62         H  0.08437766  0.17587429  0.51913306     0.15400
H63         H  0.13206713  0.79103298  0.50488878     0.13700
H64         H  0.20384270  0.85937065  0.50993761     0.13700
H65         H  0.81197308  0.12282513  0.45091049     0.13700
H66         H  0.88457902  0.19156234  0.45275674     0.13700
H67         H  0.97346504  0.96532873  0.48696963     0.26900
H68         H  0.03489604  0.02357746  0.48945861     0.26900
Zr69       Zr  0.91011960  0.44285130  0.99991016     2.17500
O70         O  0.82856251  0.40383631  0.98256339    -0.50600
O71         O  0.84187722  0.47171907  0.04457360    -0.73800
O72         O  0.92486830  0.33865477  0.01223973    -0.80500
O73         O  0.87345958  0.56624414  0.93648832    -0.82300
O74         O  0.01565338  0.30497408  0.03167298    -0.77900
O75         O  0.85095876  0.48302262  0.95316323    -0.89600
O76         O  0.88166253  0.52056342  0.08208420    -0.75500
O77         O  0.96685462  0.44087672  0.04743266    -0.85000
O78         O  0.90934605  0.54113482  0.01229432    -0.84700
O79         O  0.00459227  0.38848238  0.98515971    -0.71500
O80         O  0.95302919  0.48271565  0.95568403    -0.83600
Zr81       Zr  0.10456857  0.52354374  0.00281546     2.26400
Zr82       Zr  0.06127396  0.38705768  0.03319025     2.06300
Zr83       Zr  0.95405370  0.58001179  0.96831923     2.10000
Zr84       Zr  0.96711542  0.53882037  0.05925990     1.78800
O85         O  0.96746536  0.61258171  0.91380349    -0.92400
O86         O  0.99281274  0.50869919  0.11445727    -0.40200
O87         O  0.01037978  0.57868724  0.01591196    -0.76800
O88         O  0.06106762  0.48486467  0.04770102    -0.95500
O89         O  0.10469050  0.42630984  0.98895007    -0.88800
O90         O  0.04869273  0.52703219  0.95477239    -0.91700
C91         C  0.84177272  0.49769566  0.07178329     1.02100
C92         C  0.84472743  0.52709159  0.93453407     1.15000
C93         C  0.96589455  0.29782741  0.02282651     1.05800
O94         O  0.05313708  0.35488763  0.08837346    -0.93800
O95         O  0.14984345  0.39260827  0.06099344    -0.89600
O96         O  0.17194479  0.47601622  0.04440405    -0.82700
C97         C  0.18008958  0.43076491  0.06207336     1.12400
O98         O  0.99527326  0.37696662  0.90635197    -0.95800
Zr99       Zr  0.04657427  0.43014594  0.94181004     1.88900
O100        O  0.17274385  0.49630894  0.95835637    -0.72400
O101        O  0.13532430  0.30493560  0.01547307    -0.51700
O102        O  0.10262965  0.33216713  0.93507495    -0.96400
O103        O  0.02754421  0.47071776  0.88792460    -0.53600
O104        O  0.13828782  0.43972879  0.92271135    -0.73000
C105        C  0.17613176  0.46585317  0.93258440     0.99400
O106        O  0.17969987  0.57477272  0.01581661    -0.61800
O107        O  0.87429404  0.66113431  0.97975546    -0.56600
O108        O  0.08459487  0.62960016  0.99784004    -0.93300
O109        O  0.99710231  0.66300266  0.97444884    -0.91700
O110        O  0.90015898  0.63176117  0.06375732    -0.92000
O111        O  0.00850890  0.60656753  0.09011822    -0.90800
C112        C  0.04437269  0.67075659  0.98681201     1.18200
H113        H  0.87050266  0.56321382  0.01573541     0.34200
H114        H  0.07993760  0.48755230  0.06806464     0.45000
H115        H  0.06480189  0.54564203  0.93756186     0.38600
H116        H  0.00410266  0.35052708  0.97739940     0.35000
H117        H  0.96193670  0.53215467  0.12792582     0.26800
H118        H  0.13884869  0.27692720  0.03334089     0.32800
H119        H  0.12361751  0.33234745  0.91447621     0.38700
H120        H  0.89024552  0.63581342  0.08697218     0.33100
H121        H  0.88873656  0.68311957  0.99693962     0.32000
H122        H  0.94537292  0.65293579  0.91325098     0.33700
H123        H  0.04924003  0.50143298  0.88657146     0.32700
H124        H  0.03909744  0.61512701  0.07605679     0.36600
H125        H  0.17708946  0.58171159  0.03938746     0.29400
H126        H  0.81502624  0.38730468  0.00217639     0.33600
H127        H  0.02329004  0.35957923  0.88950018     0.36500
H128        H  0.87145511  0.68578422  0.96039003     0.29100
H129        H  0.21687919  0.54684896  0.01255318     0.41900
H130        H  0.06354476  0.38500467  0.10208323     0.32000
H131        H  0.98616203  0.46935976  0.11577830     0.39600
H132        H  0.98656673  0.49143257  0.88844190     0.31500
H133        H  0.11721717  0.28750629  0.99770861     0.31500
H134        H  0.84514396  0.37034822  0.96873458     0.31800
Zr135      Zr  0.09193909  0.53972524  0.50742944     2.17500
O136        O  0.17792886  0.57626286  0.49676088    -0.50600
O137        O  0.15362672  0.50857163  0.55454395    -0.73800
O138        O  0.07697957  0.64396713  0.51914612    -0.80500
O139        O  0.13990371  0.41575646  0.44493670    -0.82300
O140        O  0.98226845  0.68050143  0.53027071    -0.77900
O141        O  0.15704021  0.50043386  0.46324511    -0.89600
O142        O  0.11245040  0.45252660  0.58691662    -0.75500
O143        O  0.02535255  0.54606958  0.55077029    -0.85000
O144        O  0.08964776  0.44232553  0.51978148    -0.84700
O145        O  0.00207860  0.59407749  0.48581965    -0.71500
O146        O  0.05752391  0.49792948  0.46091202    -0.83600
Zr147      Zr  0.89736947  0.46111196  0.49667551     2.26400
Zr148      Zr  0.93525853  0.59927617  0.52953799     2.06300
Zr149      Zr  0.05457304  0.40119042  0.47301554     2.10000
Zr150      Zr  0.02217830  0.44892323  0.56268135     1.78800
O151        O  0.05676230  0.36039066  0.41900944    -0.92400
O152        O  0.00081886  0.48945245  0.61656899    -0.40200
O153        O  0.98795447  0.40685398  0.51648425    -0.76800
O154        O  0.93195461  0.50256240  0.54412707    -0.95500
O155        O  0.90062795  0.55748729  0.48291986    -0.88800
O156        O  0.96350854  0.45385831  0.45286014    -0.91700
C157        C  0.15276011  0.47736697  0.57966951     1.02100
C158        C  0.16732743  0.45629253  0.44456021     1.15000
C159        C  0.03421041  0.68614023  0.52577675     1.05800
O160        O  0.93146302  0.63667536  0.58438530    -0.93800
O161        O  0.84127228  0.59491890  0.55082640    -0.89600
O162        O  0.82250069  0.50982258  0.53422323    -0.82700
C163        C  0.81131955  0.55648398  0.55089585     1.12400
O164        O  0.02674409  0.59966620  0.40718680    -0.95800
Zr165      Zr  0.96844072  0.55011979  0.44015030     1.88900
O166        O  0.83819211  0.48670451  0.44786744    -0.72400
O167        O  0.86465852  0.68148758  0.50890223    -0.51700
O168        O  0.91512013  0.64826899  0.43022598    -0.96400
O169        O  0.00026796  0.50429202  0.38870491    -0.53600
O170        O  0.87980512  0.54255667  0.41555801    -0.73000
C171        C  0.83998474  0.51686211  0.42237382     0.99400
O172        O  0.82003535  0.41001556  0.50287671    -0.61800
O173        O  0.13060662  0.32220905  0.49215414    -0.56600
O174        O  0.91768533  0.35471679  0.49411710    -0.93300
O175        O  0.00888040  0.31919729  0.47606838    -0.91700
O176        O  0.06904451  0.34846499  0.57049920    -0.92000
O177        O  0.96202908  0.39993655  0.59459397    -0.90800
C178        C  0.95933078  0.31257972  0.48563591     1.18200
H179        H  0.12731381  0.41981879  0.52558162     0.34200
H180        H  0.90911865  0.50157158  0.56316318     0.45000
H181        H  0.95115420  0.43440766  0.43461742     0.38600
H182        H  0.00515177  0.63125063  0.47806060     0.35000
H183        H  0.02616742  0.46227853  0.63123776     0.26800
H184        H  0.85607896  0.70827185  0.52744487     0.32800
H185        H  0.90210572  0.64861272  0.40751005     0.38700
H186        H  0.07982816  0.34554991  0.59361248     0.33100
H187        H  0.11137243  0.30114662  0.50762409     0.32000
H188        H  0.08929146  0.32632150  0.41940247     0.33700
H189        H  0.97078556  0.48279415  0.38270399     0.32700
H190        H  0.93164124  0.39395803  0.57948222     0.36600
H191        H  0.81695460  0.40368126  0.52633800     0.29400
H192        H  0.18650519  0.59430471  0.51716964     0.33600
H193        H  0.00225098  0.61559861  0.38858109     0.36500
H194        H  0.13985832  0.29604791  0.47339022     0.29100
H195        H  0.78401791  0.43798931  0.49714644     0.41900
H196        H  0.92552213  0.60462856  0.59808064     0.32000
H197        H  0.01687815  0.52423972  0.61692849     0.39600
H198        H  0.03486741  0.47421683  0.39413099     0.31500
H199        H  0.88630632  0.70054092  0.49366056     0.31500
H200        H  0.16557540  0.60860286  0.48155673     0.31800
Zr201      Zr  0.44637861  0.92087112  0.99317204     2.17500
O202        O  0.40160412  0.84020532  0.00330473    -0.50600
O203        O  0.47213534  0.85961106  0.94541416    -0.73800
O204        O  0.34045236  0.94508893  0.98295036    -0.80500
O205        O  0.56714604  0.86664859  0.05696506    -0.82300
O206        O  0.31728832  0.03495142  0.96168086    -0.77900
O207        O  0.48069688  0.85463725  0.03782882    -0.89600
O208        O  0.53292849  0.89550501  0.91335919    -0.75500
O209        O  0.44879891  0.98418984  0.94907024    -0.85000
O210        O  0.54667065  0.91518389  0.98222003    -0.84700
O211        O  0.39737260  0.01414790  0.01238004    -0.71500
O212        O  0.48954083  0.95276123  0.04000707    -0.83600
Zr213      Zr  0.54071438  0.10582401  0.00353523     2.26400
Zr214      Zr  0.40059382  0.07743383  0.96807847     2.06300
Zr215      Zr  0.58907265  0.94855894  0.02922517     2.10000
Zr216      Zr  0.54850564  0.98008423  0.93894547     1.78800
O217        O  0.62517816  0.95013374  0.08415708    -0.92400
O218        O  0.51772896  0.00811515  0.88409255    -0.40200
O219        O  0.58977521  0.01255847  0.98550655    -0.76800
O220        O  0.49980095  0.07382109  0.95528414    -0.95500
O221        O  0.44185178  0.11019291  0.01535441    -0.88800
O222        O  0.54086371  0.04212338  0.04777639    -0.91700
C223        C  0.50348561  0.85879281  0.92012236     1.02100
C224        C  0.52433385  0.84221904  0.05697961     1.15000
C225        C  0.30390648  0.98834569  0.97088847     1.05800
O226        O  0.36602522  0.09080558  0.91270643    -0.93800
O227        O  0.41121562  0.16931762  0.94755727    -0.89600
O228        O  0.49708440  0.18304887  0.96644669    -0.82700
C229        C  0.45126573  0.19718267  0.94916244     1.12400
O230        O  0.37211154  0.00451109  0.08847663    -0.95800
Zr231      Zr  0.44160659  0.04501367  0.05857343     1.88900
O232        O  0.51977108  0.16402370  0.05295642    -0.72400
O233        O  0.31923571  0.14709336  0.99063113    -0.51700
O234        O  0.34905276  0.11340527  0.06285138    -0.96400
O235        O  0.47724912  0.00574072  0.11086793    -0.53600
O236        O  0.46144980  0.12616447  0.08568826    -0.73000
C237        C  0.49022729  0.16335614  0.07885390     0.99400
O238        O  0.59628073  0.17991111  0.00019648    -0.61800
O239        O  0.66541115  0.86643682  0.01403914    -0.56600
O240        O  0.64695269  0.07555336  0.00214258    -0.93300
O241        O  0.67670603  0.98656706  0.02400539    -0.91700
O242        O  0.64627968  0.92164341  0.93601145    -0.92000
O243        O  0.61226910  0.02634901  0.90807574    -0.90800
C244        C  0.68685846  0.03280154  0.01162405     1.18200
H245        H  0.56669275  0.87651233  0.97683025     0.34200
H246        H  0.50368825  0.09630868  0.93646888     0.45000
H247        H  0.56056974  0.05317843  0.06630371     0.38600
H248        H  0.35842330  0.01583168  0.01938488     0.35000
H249        H  0.54006347  0.97733871  0.87014998     0.26800
H250        H  0.29616291  0.16365954  0.97163650     0.32800
H251        H  0.35008593  0.13329516  0.08374549     0.38700
H252        H  0.64957580  0.90489765  0.91404049     0.33100
H253        H  0.68482620  0.87980108  0.99541981     0.32000
H254        H  0.66045192  0.91896912  0.08473917     0.33700
H255        H  0.50949032  0.02411520  0.11611931     0.32700
H256        H  0.61837612  0.05800693  0.92214141     0.36600
H257        H  0.60497653  0.18309436  0.97700775     0.29400
H258        H  0.38185942  0.83423865  0.98296705     0.33600
H259        H  0.36400752  0.02776334  0.10844432     0.36500
H260        H  0.69390080  0.86257317  0.03178014     0.29100
H261        H  0.56897202  0.21651799  0.00555740     0.41900
H262        H  0.40090105  0.09092015  0.89974066     0.32000
H263        H  0.47764656  0.00304336  0.88280391     0.39600
H264        H  0.49610321  0.96515619  0.10639766     0.31500
H265        H  0.29522644  0.12397445  0.00152284     0.31500
H266        H  0.37010709  0.85460212  0.01888320     0.31800
Zr267      Zr  0.53924790  0.09858707  0.50357139     2.17500
O268        O  0.57838856  0.17861849  0.52291084    -0.50600
O269        O  0.51088703  0.17007769  0.46085665    -0.73800
O270        O  0.64401221  0.08576037  0.49324135    -0.80500
O271        O  0.41434097  0.13108244  0.56690575    -0.82300
O272        O  0.67844091  0.99931207  0.46925882    -0.77900
O273        O  0.49803303  0.15391724  0.55084549    -0.89600
O274        O  0.45692794  0.13609385  0.42354376    -0.75500
O275        O  0.54240399  0.04607208  0.45454899    -0.85000
O276        O  0.44082963  0.09958299  0.49051895    -0.84700
O277        O  0.59498850  0.00424629  0.51635432    -0.71500
O278        O  0.49966551  0.05256335  0.54664171    -0.83600
Zr279      Zr  0.46144065  0.90437166  0.49627113     2.26400
Zr280      Zr  0.59734457  0.95155362  0.46697210     2.06300
Zr281      Zr  0.40192303  0.05169742  0.53321430     2.10000
Zr282      Zr  0.44450779  0.04523510  0.44212444     1.78800
O283        O  0.36457110  0.04010526  0.58689206    -0.92400
O284        O  0.48127568  0.02644133  0.38734467    -0.40200
O285        O  0.40520293  0.99829942  0.48437048    -0.76800
O286        O  0.49934275  0.95121413  0.45239631    -0.95500
O287        O  0.55905310  0.90426138  0.51008707    -0.88800
O288        O  0.45681384  0.95737392  0.54538507    -0.91700
C289        C  0.48204166  0.17393296  0.43444168     1.02100
C290        C  0.45390455  0.15945962  0.56939064     1.15000
C291        C  0.68544355  0.04719520  0.48108416     1.05800
O292        O  0.63113880  0.95897545  0.41204616    -0.93800
O293        O  0.59232008  0.86452707  0.43785266    -0.89600
O294        O  0.50996690  0.83927664  0.45414807    -0.82700
C295        C  0.55510376  0.83322998  0.43636636     1.12400
O296        O  0.61833762  0.00073578  0.59231989    -0.95800
Zr297      Zr  0.55427030  0.95895923  0.55853542     1.88900
O298        O  0.48347101  0.83668975  0.54125135    -0.72400
O299        O  0.68205022  0.87952086  0.48322389    -0.51700
O300        O  0.64980260  0.89606703  0.56408646    -0.96400
O301        O  0.51446138  0.98155846  0.61244884    -0.53600
O302        O  0.54068770  0.86911029  0.57737540    -0.73000
C303        C  0.51271156  0.83292571  0.56750481     0.99400
O304        O  0.41310683  0.82702639  0.48359781    -0.61800
O305        O  0.32026842  0.12928106  0.51941672    -0.56600
O306        O  0.35514442  0.92386082  0.49762134    -0.93300
O307        O  0.32018121  0.00555492  0.52617540    -0.91700
O308        O  0.34611403  0.10237412  0.43899518    -0.92000
O309        O  0.38530129  0.00299974  0.40552702    -0.90800
C310        C  0.31333867  0.96072854  0.51066110     1.18200
H311        H  0.41839378  0.13833175  0.48784908     0.34200
H312        H  0.49691629  0.93310239  0.43180561     0.45000
H313        H  0.43806835  0.94071614  0.56233870     0.38600
H314        H  0.63300309  0.00429688  0.52432965     0.35000
H315        H  0.46431005  0.06162022  0.37502464     0.26800
H316        H  0.71010010  0.87895091  0.46552529     0.32800
H317        H  0.64939173  0.87665546  0.58513743     0.38700
H318        H  0.34424898  0.12330149  0.41830016     0.33100
H319        H  0.30208939  0.11470832  0.50063895     0.32000
H320        H  0.32562308  0.06574130  0.58717110     0.33700
H321        H  0.48549138  0.95799555  0.61509295     0.32700
H322        H  0.38250904  0.96651686  0.41597662     0.36600
H323        H  0.40534767  0.82956612  0.46011410     0.29400
H324        H  0.59566002  0.19300895  0.50379759     0.33600
H325        H  0.62668921  0.97567812  0.61153060     0.36500
H326        H  0.29246868  0.13002882  0.53724668     0.29100
H327        H  0.44241649  0.79074711  0.48649067     0.41900
H328        H  0.63005115  0.00027581  0.40900789     0.32000
H329        H  0.52276088  0.02642342  0.38894135     0.39600
H330        H  0.49140819  0.02146230  0.61087455     0.31500
H331        H  0.69834283  0.89700619  0.50166690     0.31500
H332        H  0.61148788  0.16145628  0.53692172     0.31800
O333        O  0.63228416  0.49865045  0.31110189    -0.74500
O334        O  0.63472577  0.57834198  0.28131656    -0.53400
C335        C  0.65356993  0.54149555  0.30362651     0.79200
O336        O  0.50095578  0.37388990  0.18744620    -0.59100
O337        O  0.42637655  0.36581223  0.22042872    -0.52100
C338        C  0.46074194  0.34992805  0.19649457     0.71200
O339        O  0.62171242  0.48843215  0.18131051    -0.73700
O340        O  0.62907996  0.57113444  0.20709667    -0.54200
C341        C  0.64447028  0.53153450  0.18568426     0.77200
O342        O  0.50405947  0.39325729  0.32524139    -0.58800
O343        O  0.42772027  0.37707185  0.29618032    -0.51900
C344        C  0.46228656  0.36859138  0.32045025     0.73800
Zr345      Zr  0.55240089  0.45676060  0.29684695     2.54700
O346        O  0.62590699  0.36992372  0.28638470    -0.79400
O347        O  0.57245678  0.44810217  0.35451572    -0.92800
Zr348      Zr  0.54478992  0.45054288  0.20375487     2.64700
O349        O  0.62611061  0.36875114  0.21001334    -0.97800
O350        O  0.54571704  0.44122129  0.14524918    -0.79800
O351        O  0.58621546  0.48862497  0.24814498    -0.83200
O352        O  0.51434374  0.41554326  0.25251153    -2.17900
O353        O  0.35682558  0.53825790  0.32661407    -0.66600
O354        O  0.33775611  0.46565077  0.29552671    -0.51100
C355        C  0.33149946  0.49702188  0.32106363     0.72200
O356        O  0.45360268  0.65430821  0.17808823    -0.59500
O357        O  0.53305281  0.66609300  0.20597957    -0.51500
C358        C  0.49661346  0.67759819  0.18263206     0.74000
O359        O  0.35032157  0.52343726  0.18066059    -0.70900
O360        O  0.33477738  0.45596201  0.21628232    -0.49500
C361        C  0.32691926  0.48229215  0.18911134     0.75400
O362        O  0.46870888  0.66293388  0.31700504    -0.66200
O363        O  0.54350618  0.66959428  0.28375251    -0.53400
C364        C  0.51205150  0.68368733  0.30897185     0.73800
Zr365      Zr  0.41757901  0.59137321  0.29788067     2.77500
O366        O  0.33270095  0.66860927  0.28984818    -0.96900
O367        O  0.40304705  0.61749649  0.35457379    -0.77800
Zr368      Zr  0.40895365  0.58443416  0.20440267     2.70100
O369        O  0.32401368  0.65788450  0.21869013    -0.79000
O370        O  0.37763026  0.61495446  0.14989836    -0.98100
Zr371      Zr  0.55060130  0.59017094  0.24624445     2.21500
Zr372      Zr  0.41238051  0.45080271  0.25478054     2.11100
O373        O  0.37515194  0.55294349  0.25342649    -2.46800
O374        O  0.44811094  0.62618783  0.24876088    -0.78800
O375        O  0.45156298  0.49058675  0.29973893    -0.71000
O376        O  0.51062706  0.55111417  0.20098403    -2.32000
O377        O  0.51913040  0.55743068  0.29601567    -2.28200
O378        O  0.44357835  0.48355858  0.20530619    -0.72800
H379        H  0.52488816  0.37412774  0.25347074     0.79200
H380        H  0.52439325  0.56315755  0.18084843     0.80300
H381        H  0.33361549  0.56245364  0.25461769     0.82500
H382        H  0.53648165  0.57160286  0.31444351     0.80200
H383        H  0.51431468  0.47319345  0.13787415     0.43200
H384        H  0.39264617  0.58119891  0.13597971     0.42200
H385        H  0.33219336  0.69397854  0.21030322     0.41800
H386        H  0.30777772  0.66588000  0.30862570     0.39800
H387        H  0.43163046  0.58785614  0.36617601     0.42900
H388        H  0.57006553  0.48782810  0.36220997     0.37700
H389        H  0.66109117  0.38382682  0.28142922     0.43800
H390        H  0.63373833  0.35293531  0.18794087     0.40200
H391        H  0.34649338  0.70416388  0.29375061     0.45100
H392        H  0.61374467  0.42883810  0.35627827     0.43900
H393        H  0.65938942  0.38583371  0.21492970     0.44000
H394        H  0.33523648  0.61946310  0.14978004     0.44400
O395        O  0.66194133  0.47505225  0.81418930    -0.74500
O396        O  0.66567454  0.55313996  0.78335764    -0.53400
C397        C  0.68238912  0.51868968  0.80697139     0.79200
O398        O  0.53345684  0.35152783  0.68146164    -0.59100
O399        O  0.46494483  0.33532232  0.71659275    -0.52100
C400        C  0.49458457  0.32531689  0.69055571     0.71200
O401        O  0.65005317  0.47386887  0.67712184    -0.73100
O402        O  0.65668178  0.55347712  0.70634250    -0.54200
C403        C  0.66926231  0.51932127  0.68205048     0.77200
O404        O  0.53282121  0.37143528  0.82667279    -0.58800
O405        O  0.46420758  0.34598030  0.79496355    -0.51900
C406        C  0.49224613  0.34502123  0.82154722     0.73800
Zr407      Zr  0.59030426  0.42420640  0.79544808     2.54700
O408        O  0.66284256  0.33920752  0.78016889    -0.79400
O409        O  0.62710389  0.39147652  0.84873382    -0.92800
Zr410      Zr  0.58347075  0.42279210  0.70204096     2.64700
O411        O  0.66660341  0.34367351  0.70974904    -0.97800
O412        O  0.59773472  0.40805782  0.64425082    -0.79800
O413        O  0.62322959  0.46055607  0.74758704    -0.83200
O414        O  0.55360739  0.38376953  0.74999939    -2.17900
O415        O  0.38897326  0.50139750  0.82351748    -0.66600
O416        O  0.37406116  0.42811993  0.79159328    -0.51100
C417        C  0.36491846  0.45989102  0.81693271     0.72200
O418        O  0.48108589  0.63197629  0.68374874    -0.59500
O419        O  0.56250415  0.64179515  0.71038263    -0.51500
C420        C  0.52328714  0.65599238  0.68868743     0.74000
O421        O  0.37503968  0.50154999  0.68330798    -0.70900
O422        O  0.36974812  0.42533488  0.71533475    -0.49500
C423        C  0.35386560  0.45873636  0.69111526     0.75400
O424        O  0.48949397  0.63466787  0.81504099    -0.66200
O425        O  0.56730340  0.64336196  0.78488885    -0.53400
C426        C  0.53049683  0.65892733  0.80772820     0.73800
Zr427      Zr  0.45095610  0.55475272  0.79741328     2.77500
O428        O  0.36160681  0.62587715  0.78873575    -0.96900
O429        O  0.43952291  0.57483559  0.85494877    -0.77800
Zr430      Zr  0.44464177  0.55235281  0.70375067     2.70100
O431        O  0.35660472  0.62659583  0.70928337    -0.79000
O432        O  0.44203338  0.56151947  0.64518514    -0.98100
Zr433      Zr  0.58310149  0.56194630  0.74787716     2.21500
Zr434      Zr  0.45086717  0.41690351  0.75225303     2.11100
O435        O  0.41138161  0.51791451  0.75186453    -2.46800
O436        O  0.48045435  0.59316522  0.74946542    -0.78800
O437        O  0.48901440  0.45504692  0.79798759    -0.71000
O438        O  0.54571457  0.52318356  0.70164919    -2.32000
O439        O  0.55297306  0.52521668  0.79687152    -2.28200
O440        O  0.48160063  0.45199406  0.70327917    -0.72800
H441        H  0.56464106  0.34238532  0.75013744     0.79200
H442        H  0.55677934  0.53890727  0.68189473     0.80300
H443        H  0.36977475  0.52651361  0.75271469     0.82500
H444        H  0.56727880  0.54137635  0.81570484     0.80200
H445        H  0.56538343  0.43616816  0.63436467     0.43200
H446        H  0.44982435  0.52159482  0.63695706     0.42200
H447        H  0.36854304  0.66300730  0.70512351     0.41800
H448        H  0.35101995  0.64245696  0.81039589     0.39800
H449        H  0.47547915  0.55236317  0.86475820     0.42900
H450        H  0.61915002  0.42622509  0.86253148     0.37700
H451        H  0.70001508  0.35076948  0.78271813     0.43800
H452        H  0.65124328  0.30875053  0.70698422     0.40200
H453        H  0.37329984  0.65702119  0.77660426     0.45100
H454        H  0.66961358  0.38087770  0.84658083     0.43900
H455        H  0.69064576  0.34454326  0.69036001     0.44000
H456        H  0.40108033  0.57777129  0.63985058     0.44400
C457        C  0.47670946  0.22383840  0.41482519    -0.17700
C458        C  0.46793882  0.26002240  0.39420770     0.06300
C459        C  0.45799272  0.29748339  0.36767745     0.08200
C460        C  0.45493587  0.32888406  0.34484247    -0.18600
C461        C  0.52946079  0.72107265  0.33207860    -0.17700
C462        C  0.54306861  0.74466579  0.35558087     0.06300
C463        C  0.55507078  0.76921011  0.38504408     0.08200
C464        C  0.55963909  0.79390541  0.40992818    -0.18600
C465        C  0.45162394  0.19694077  0.59644399    -0.17700
C466        C  0.45706613  0.22433094  0.62011348     0.06300
C467        C  0.46916717  0.25497139  0.64722699     0.08200
C468        C  0.48124173  0.28404278  0.66867190    -0.18600
C469        C  0.51328994  0.78662051  0.58900332    -0.17700
C470        C  0.51814491  0.75680277  0.61250253     0.06300
C471        C  0.52496834  0.72758388  0.64201482     0.08200
C472        C  0.52769580  0.69923532  0.66601169    -0.18600
C473        C  0.44848799  0.24273584  0.92654905    -0.17700
C474        C  0.45240467  0.27099742  0.90304108     0.06300
C475        C  0.46278737  0.29571096  0.87347362     0.08200
C476        C  0.47516829  0.31568036  0.84855970    -0.18600
C477        C  0.53475041  0.70607666  0.82798344    -0.17700
C478        C  0.52885318  0.74140286  0.84911017     0.06300
C479        C  0.51650557  0.77961540  0.87530988     0.08200
C480        C  0.50724188  0.81358155  0.89714803    -0.18600
C481        C  0.48767859  0.20689933  0.10273440    -0.17700
C482        C  0.47710739  0.23717232  0.12615245     0.06300
C483        C  0.46222808  0.26996750  0.15434535     0.08200
C484        C  0.45495971  0.30273833  0.17675874    -0.18600
C485        C  0.50609281  0.71673671  0.15819485    -0.17700
C486        C  0.51274704  0.74426799  0.13476467     0.06300
C487        C  0.51895603  0.77412106  0.10613406     0.08200
C488        C  0.52263582  0.80198734  0.08235619    -0.18600
C489        C  0.29533887  0.48378117  0.34619961    -0.17700
C490        C  0.26844427  0.47267631  0.36898395     0.06300
C491        C  0.23768541  0.46142560  0.39637828     0.08200
C492        C  0.20860006  0.45558376  0.41935132    -0.18600
C493        C  0.79522799  0.52285804  0.39870725    -0.17700
C494        C  0.76476835  0.53283436  0.37524135     0.06300
C495        C  0.73202441  0.54439952  0.34668815     0.08200
C496        C  0.69990483  0.54863887  0.32394328    -0.18600
C497        C  0.20002975  0.46880072  0.60181119    -0.17700
C498        C  0.23547829  0.45908661  0.62299314     0.06300
C499        C  0.27471915  0.44989562  0.64893005     0.08200
C500        C  0.30948302  0.44855067  0.67016641    -0.18600
C501        C  0.70259827  0.53550491  0.65639473    -0.17700
C502        C  0.72267127  0.54742880  0.63133151     0.06300
C503        C  0.74414690  0.55758703  0.60068765     0.08200
C504        C  0.76855535  0.56112929  0.57558461    -0.18600
C505        C  0.22515112  0.46061530  0.91227213    -0.17700
C506        C  0.26012616  0.45364089  0.89100043     0.06300
C507        C  0.29571035  0.44768428  0.86372738     0.08200
C508        C  0.32581416  0.44871352  0.84067557    -0.18600
C509        C  0.80639146  0.53109848  0.90765853    -0.17700
C510        C  0.78041741  0.53436237  0.88257909     0.06300
C511        C  0.75210663  0.53521665  0.85270977     0.08200
C512        C  0.72406451  0.53096810  0.82906638    -0.18600
C513        C  0.22055900  0.42729612  0.08796812    -0.17700
C514        C  0.24587037  0.43331478  0.11245449     0.06300
C515        C  0.27029685  0.44721656  0.14157923     0.08200
C516        C  0.29277304  0.46239139  0.16507483    -0.18600
C517        C  0.79369837  0.50334653  0.09297805    -0.17700
C518        C  0.75935697  0.51440658  0.11458498     0.06300
C519        C  0.72261746  0.52825819  0.14135465     0.08200
C520        C  0.68929714  0.53502069  0.16352571    -0.18600
C521        C  0.20857369  0.97518031  0.52475244    -0.15700
C522        C  0.25344920  0.95249415  0.50527154    -0.30800
H523        H  0.21728759  0.99787519  0.54625580     0.13400
H524        H  0.24567043  0.92972062  0.48360678     0.13900
C525        C  0.79276720  0.01686980  0.47486195    -0.15700
C526        C  0.74549191  0.05701848  0.48366306    -0.30800
H527        H  0.78605232  0.97788686  0.46347891     0.13400
H528        H  0.75117984  0.09512904  0.49639409     0.13900
C529        C  0.01122486  0.78839333  0.50972119    -0.15700
C530        C  0.04472663  0.74549346  0.52696488    -0.30800
H531        H  0.97735263  0.77701157  0.49519234     0.13400
H532        H  0.07934993  0.75352568  0.54203001     0.13900
C533        C  0.99045107  0.20520799  0.48044667    -0.15700
C534        C  0.94997228  0.25261354  0.48874987    -0.30800
H535        H  0.03055816  0.21149603  0.47018693     0.13400
H536        H  0.91045642  0.24731786  0.50014657     0.13900
C537        C  0.21465449  0.95372848  0.98598058    -0.15700
C538        C  0.24117287  0.98835382  0.96885596    -0.30800
H539        H  0.24047561  0.91809860  0.99941498     0.13400
H540        H  0.21420960  0.02318682  0.95532176     0.13900
C541        C  0.79301415  0.00941810  0.02347994    -0.15700
C542        C  0.74787839  0.03610399  0.00524534    -0.30800
H543        H  0.78397771  0.98565504  0.04440837     0.13400
H544        H  0.75577125  0.05960250  0.98397914     0.13900
C545        C  0.01240486  0.77748164  0.97998983    -0.15700
C546        C  0.05220032  0.73105131  0.99021101    -0.30800
H547        H  0.97383365  0.77030843  0.96819552     0.13400
H548        H  0.08973550  0.73753608  0.00333320     0.13900
C549        C  0.99148056  0.19485385  0.00759516    -0.15700
C550        C  0.95624685  0.23816833  0.02385627    -0.30800
H551        H  0.02633991  0.20606440  0.99392221     0.13400
H552        H  0.92119268  0.23018796  0.03849883     0.13900
loop_ 
_geom_bond_atom_site_label_1 
_geom_bond_atom_site_label_2 
_geom_bond_distance 
_geom_bond_site_symmetry_2 
_ccdc_geom_bond_type 
N1            C6   1.361       .  A
N1            C5   1.362       .  A
N1           H33   1.037   1_554  S
N2            C9   1.360       .  A
N2           C10   1.360       .  A
N3            C8   1.363       .  A
N3            C7   1.360   1_556  A
N3           H34   1.039       .  S
N4           C11   1.357       .  A
N4           C12   1.356       .  A
C5           C13   1.390       .  A
C5           C21   1.430   1_565  A
C6           C22   1.428   1_654  A
C6           C14   1.386       .  A
C7           C15   1.388       .  A
C7           C24   1.428   1_455  A
C8           C23   1.429   1_545  A
C8           C16   1.387   1_556  A
C9           C21   1.431       .  A
C9           C17   1.387       .  A
C10          C24   1.430       .  A
C10          C18   1.386       .  A
C11          C19   1.387       .  A
C11          C22   1.424       .  A
C12          C20   1.385       .  A
C12          C23   1.420       .  A
C13          C14   1.373       .  A
C13          H25   1.081       .  S
C14          H26   1.082       .  S
C15          C16   1.375       .  A
C15          H27   1.083       .  S
C16          H28   1.082       .  S
C17          C18   1.377       .  A
C17          H29   1.079       .  S
C18          H30   1.080       .  S
C19          C20   1.377       .  A
C19          H31   1.081       .  S
C20          H32   1.082       .  S
C21         C541   1.515       .  S
C22         C545   1.512       .  S
C23         C537   1.513       .  S
C24         C549   1.518       .  S
N35          C40   1.361       .  A
N35          C39   1.361       .  A
N35          H67   1.038       .  S
N36          C43   1.359       .  A
N36          C44   1.358       .  A
N37          C42   1.361       .  A
N37          C41   1.362       .  A
N37          H68   1.038       .  S
N38          C45   1.359       .  A
N38          C46   1.359       .  A
C39          C47   1.389       .  A
C39          C55   1.428   1_655  A
C40          C56   1.426   1_565  A
C40          C48   1.388       .  A
C41          C49   1.390       .  A
C41          C58   1.429   1_545  A
C42          C57   1.428   1_455  A
C42          C50   1.387       .  A
C43          C55   1.429       .  A
C43          C51   1.387       .  A
C44          C58   1.428       .  A
C44          C52   1.387       .  A
C45          C53   1.385       .  A
C45          C56   1.426       .  A
C46          C54   1.386       .  A
C46          C57   1.427       .  A
C47          C48   1.373       .  A
C47          H59   1.083       .  S
C48          H60   1.083       .  S
C49          C50   1.373       .  A
C49          H61   1.081       .  S
C50          H62   1.082       .  S
C51          C52   1.380       .  A
C51          H63   1.080       .  S
C52          H64   1.081       .  S
C53          C54   1.380       .  A
C53          H65   1.082       .  S
C54          H66   1.082       .  S
C55         C529   1.516       .  S
C56         C525   1.514       .  S
C57         C533   1.516       .  S
C58         C521   1.512       .  S
Zr69         O70   2.442       .  S
Zr69         O71   2.457   1_556  S
Zr69         O72   2.490   1_556  S
Zr69         O75   2.461       .  S
Zr69         O77   2.382   1_556  S
Zr69         O78   2.400   1_556  S
Zr69         O79   2.410   1_655  S
Zr69         O80   2.400       .  S
O70         H126   0.990   1_556  S
O70         H134   0.991       .  S
O71          C91   1.286       .  A
O72          C93   1.293       .  A
O73         Zr83   2.410       .  S
O73          C92   1.280       .  A
O74         Zr82   2.447       .  S
O74          C93   1.287   1_455  A
O75          C92   1.289       .  A
O76         Zr84   2.373       .  S
O76          C91   1.270       .  A
O77         Zr82   2.399   1_655  S
O77         Zr84   2.392       .  S
O78         Zr83   2.403   1_554  S
O78         Zr84   2.376       .  S
O78         H113   0.967       .  S
O79         Zr82   2.400   1_556  S
O79         Zr99   2.383       .  S
O79         H116   0.964       .  S
O80         Zr83   2.388       .  S
O80         Zr99   2.369   1_655  S
Zr81        O106   2.443       .  S
Zr81        O100   2.445   1_554  S
Zr81        O108   2.481   1_554  S
Zr81         O96   2.454       .  S
Zr81         O87   2.394       .  S
Zr81         O88   2.415       .  S
Zr81         O89   2.392   1_554  S
Zr81         O90   2.385   1_554  S
Zr82        O101   2.438       .  S
Zr82         O94   2.437       .  S
Zr82         O95   2.431       .  S
Zr82         O88   2.412       .  S
Zr82         O89   2.400   1_554  S
Zr83         O85   2.436       .  S
Zr83        O107   2.436       .  S
Zr83        O109   2.441       .  S
Zr83         O87   2.380   1_656  S
Zr83         O90   2.390   1_655  S
Zr84        O110   2.433       .  S
Zr84        O111   2.436   1_655  S
Zr84         O86   2.436       .  S
Zr84         O87   2.377   1_655  S
Zr84         O88   2.366   1_655  S
O85         H122   0.990       .  S
O86         H117   0.990       .  S
O86         H131   0.990       .  S
O88         H114   0.964       .  S
O89         Zr99   2.383       .  S
O90         Zr99   2.388       .  S
O90         H115   0.966       .  S
C91         C517   1.426       .  S
C92         C509   1.429       .  S
C93         C550   1.495       .  S
O94         H130   0.990       .  S
O95          C97   1.283       .  A
O96          C97   1.286       .  A
C97         C513   1.432       .  S
O98         Zr99   2.439   1_655  S
O98         H127   0.990   1_655  S
Zr99        O102   2.437       .  S
Zr99        O103   2.438       .  S
Zr99        O104   2.382       .  S
O100        C105   1.283       .  A
O101        H118   0.990       .  S
O101        H133   0.990   1_554  S
O102        H119   0.990       .  S
O103        H123   0.990       .  S
O103        H132   0.990   1_455  S
O104        C105   1.273       .  A
C105        C505   1.422       .  S
O106        H125   0.990       .  S
O106        H129   0.991       .  S
O107        H121   0.990       .  S
O107        H128   0.990       .  S
O108        C112   1.293       .  A
O109        C112   1.287   1_655  A
O110        H120   0.990       .  S
O111        H124   0.990       .  S
C112        C546   1.500       .  S
Zr135       O136   2.441       .  S
Zr135       O137   2.457       .  S
Zr135       O138   2.483       .  S
Zr135       O141   2.446       .  S
Zr135       O143   2.379       .  S
Zr135       O144   2.398       .  S
Zr135       O145   2.413       .  S
Zr135       O146   2.396       .  S
O136        H192   0.990       .  S
O136        H200   0.991       .  S
O137        C157   1.285       .  A
O138        C159   1.291       .  A
O139       Zr149   2.435       .  S
O139        C158   1.284       .  A
O140       Zr148   2.449       .  S
O140        C159   1.287   1_655  A
O141        C158   1.286       .  A
O142       Zr150   2.390       .  S
O142        C157   1.273       .  A
O143       Zr148   2.402   1_455  S
O143       Zr150   2.393       .  S
O144       Zr149   2.403       .  S
O144       Zr150   2.379       .  S
O144        H179   0.967       .  S
O145       Zr148   2.397   1_455  S
O145       Zr165   2.386   1_455  S
O145        H182   0.964       .  S
O146       Zr149   2.384       .  S
O146       Zr165   2.368   1_455  S
Zr147       O172   2.441       .  S
Zr147       O166   2.463       .  S
Zr147       O174   2.482       .  S
Zr147       O162   2.454       .  S
Zr147       O153   2.399       .  S
Zr147       O154   2.425       .  S
Zr147       O155   2.393       .  S
Zr147       O156   2.385       .  S
Zr148       O167   2.437       .  S
Zr148       O160   2.435       .  S
Zr148       O161   2.430       .  S
Zr148       O154   2.410       .  S
Zr148       O155   2.401       .  S
Zr149       O151   2.435       .  S
Zr149       O173   2.437       .  S
Zr149       O175   2.450       .  S
Zr149       O153   2.385   1_455  S
Zr149       O156   2.400   1_455  S
Zr150       O176   2.432       .  S
Zr150       O177   2.437   1_455  S
Zr150       O152   2.440       .  S
Zr150       O153   2.387   1_455  S
Zr150       O154   2.369   1_455  S
O151        H188   0.990       .  S
O152        H183   0.990       .  S
O152        H197   0.990       .  S
O154        H180   0.962       .  S
O155       Zr165   2.378       .  S
O156       Zr165   2.390       .  S
O156        H181   0.966       .  S
C157        C497   1.430       .  S
C158        C492   1.433       .  S
C159        C530   1.496       .  S
O160        H196   0.990       .  S
O161        C163   1.283       .  A
O162        C163   1.287       .  A
C163        C504   1.431       .  S
O164       Zr165   2.439   1_455  S
O164        H193   0.990       .  S
Zr165       O168   2.440       .  S
Zr165       O169   2.437   1_655  S
Zr165       O170   2.385       .  S
O166        C171   1.287       .  A
O167        H184   0.991       .  S
O167        H199   0.990       .  S
O168        H185   0.990       .  S
O169        H189   0.990   1_455  S
O169        H198   0.990       .  S
O170        C171   1.272       .  A
C171        C493   1.431       .  S
O172        H191   0.990       .  S
O172        H195   0.991       .  S
O173        H187   0.990       .  S
O173        H194   0.990       .  S
O174        C178   1.293       .  A
O175        C178   1.288   1_455  A
O176        H186   0.990       .  S
O177        H190   0.990       .  S
C178        C534   1.505       .  S
Zr201       O202   2.441   1_556  S
Zr201       O203   2.454       .  S
Zr201       O204   2.494       .  S
Zr201       O207   2.456   1_556  S
Zr201       O209   2.385       .  S
Zr201       O210   2.405       .  S
Zr201       O211   2.407   1_566  S
Zr201       O212   2.397   1_556  S
O202        H258   0.990   1_554  S
O202        H266   0.991       .  S
O203        C223   1.285       .  A
O204        C225   1.294       .  A
O205       Zr215   2.429       .  S
O205        C224   1.283       .  A
O206       Zr214   2.437       .  S
O206        C225   1.285   1_545  A
O207        C224   1.288       .  A
O208       Zr216   2.382       .  S
O208        C223   1.272       .  A
O209       Zr214   2.398   1_565  S
O209       Zr216   2.391       .  S
O210       Zr215   2.408   1_556  S
O210       Zr216   2.381       .  S
O210        H245   0.966       .  S
O211       Zr214   2.394   1_554  S
O211       Zr231   2.378       .  S
O211        H248   0.964       .  S
O212       Zr215   2.392       .  S
O212       Zr231   2.371   1_565  S
Zr213       O238   2.441       .  S
Zr213       O232   2.461       .  S
Zr213       O240   2.470       .  S
Zr213       O228   2.449   1_554  S
Zr213       O219   2.391   1_554  S
Zr213       O220   2.420   1_554  S
Zr213       O221   2.384       .  S
Zr213       O222   2.386       .  S
Zr214       O233   2.438       .  S
Zr214       O226   2.435       .  S
Zr214       O227   2.423       .  S
Zr214       O220   2.404       .  S
Zr214       O221   2.398   1_556  S
Zr215       O217   2.436       .  S
Zr215       O239   2.439       .  S
Zr215       O241   2.465       .  S
Zr215       O219   2.377   1_564  S
Zr215       O222   2.398   1_565  S
Zr216       O242   2.434       .  S
Zr216       O243   2.435   1_565  S
Zr216       O218   2.437   1_565  S
Zr216       O219   2.371   1_565  S
Zr216       O220   2.377   1_565  S
O217        H254   0.990       .  S
O218        H249   0.990   1_545  S
O218        H263   0.990       .  S
O220        H246   0.965       .  S
O221       Zr231   2.378       .  S
O222       Zr231   2.391       .  S
O222        H247   0.966       .  S
C223        C480   1.426       .  S
C224        C488   1.434       .  S
C225        C538   1.496       .  S
O226        H262   0.990       .  S
O227        C229   1.281       .  A
O228        C229   1.285       .  A
C229        C473   1.429       .  S
O230       Zr231   2.437       .  S
O230        H259   0.990       .  S
Zr231       O234   2.438       .  S
Zr231       O235   2.439       .  S
Zr231       O236   2.377       .  S
O232        C237   1.286       .  A
O233        H250   0.991       .  S
O233        H265   0.990   1_556  S
O234        H251   0.990       .  S
O235        H255   0.990       .  S
O235        H264   0.990   1_545  S
O236        C237   1.271       .  A
C237        C481   1.426       .  S
O238        H257   0.990   1_554  S
O238        H261   0.991       .  S
O239        H253   0.990   1_554  S
O239        H260   0.990       .  S
O240        C244   1.291       .  A
O241        C244   1.291   1_565  A
O242        H252   0.990       .  S
O243        H256   0.990       .  S
C244        C542   1.496       .  S
Zr267       O268   2.442       .  S
Zr267       O269   2.451       .  S
Zr267       O270   2.481       .  S
Zr267       O273   2.441       .  S
Zr267       O275   2.378       .  S
Zr267       O276   2.399       .  S
Zr267       O277   2.406       .  S
Zr267       O278   2.401       .  S
O268        H324   0.990       .  S
O268        H332   0.991       .  S
O269        C289   1.284       .  A
O270        C291   1.291       .  A
O271       Zr281   2.424       .  S
O271        C290   1.282       .  A
O272       Zr280   2.455       .  S
O272        C291   1.289   1_565  A
O273        C290   1.285       .  A
O274       Zr282   2.387       .  S
O274        C289   1.273       .  A
O275       Zr280   2.400   1_545  S
O275       Zr282   2.391       .  S
O276       Zr281   2.406       .  S
O276       Zr282   2.378       .  S
O276        H311   0.966       .  S
O277       Zr280   2.395   1_545  S
O277       Zr297   2.378   1_545  S
O277        H314   0.963       .  S
O278       Zr281   2.397       .  S
O278       Zr297   2.374   1_545  S
Zr279       O304   2.443       .  S
Zr279       O298   2.450       .  S
Zr279       O306   2.469       .  S
Zr279       O294   2.447       .  S
Zr279       O285   2.394       .  S
Zr279       O286   2.417       .  S
Zr279       O287   2.392       .  S
Zr279       O288   2.384       .  S
Zr280       O299   2.435       .  S
Zr280       O292   2.435       .  S
Zr280       O293   2.428       .  S
Zr280       O286   2.411       .  S
Zr280       O287   2.404       .  S
Zr281       O283   2.436       .  S
Zr281       O305   2.435       .  S
Zr281       O307   2.460       .  S
Zr281       O285   2.382   1_545  S
Zr281       O288   2.393   1_545  S
Zr282       O308   2.436       .  S
Zr282       O309   2.436       .  S
Zr282       O284   2.438       .  S
Zr282       O285   2.384   1_545  S
Zr282       O286   2.371   1_545  S
O283        H320   0.990       .  S
O284        H315   0.990       .  S
O284        H329   0.990       .  S
O286        H312   0.963       .  S
O287       Zr297   2.382       .  S
O288       Zr297   2.391       .  S
O288        H313   0.966       .  S
C289        C457   1.427       .  S
C290        C465   1.427       .  S
C291        C526   1.504       .  S
O292        H328   0.990   1_565  S
O293        C295   1.283       .  A
O294        C295   1.285       .  A
C295        C464   1.430       .  S
O296       Zr297   2.441   1_545  S
O296        H325   0.990   1_545  S
Zr297       O300   2.440       .  S
Zr297       O301   2.440       .  S
Zr297       O302   2.377       .  S
O298        C303   1.283       .  A
O299        H316   0.991       .  S
O299        H331   0.990       .  S
O300        H317   0.990       .  S
O301        H321   0.990       .  S
O301        H330   0.990   1_565  S
O302        C303   1.271       .  A
C303        C469   1.420       .  S
O304        H323   0.990       .  S
O304        H327   0.991       .  S
O305        H319   0.990       .  S
O305        H326   0.990       .  S
O306        C310   1.290       .  A
O307        C310   1.289   1_545  A
O308        H318   0.990       .  S
O309        H322   0.990   1_545  S
C310        C522   1.499       .  S
O333       Zr345   2.412       .  S
O333        C335   1.279       .  A
O334       Zr371   2.438       .  S
O334        C335   1.288       .  A
C335        C496   1.427       .  S
O336       Zr348   2.399       .  S
O336        C338   1.278       .  A
O337       Zr372   2.439       .  S
O337        C338   1.288       .  A
C338        C484   1.423       .  S
O339       Zr348   2.407       .  S
O339        C341   1.280       .  A
O340       Zr371   2.440       .  S
O340        C341   1.288       .  A
C341        C520   1.425       .  S
O342       Zr345   2.411       .  S
O342        C344   1.280       .  A
O343       Zr372   2.431       .  S
O343        C344   1.286       .  A
C344        C460   1.426       .  S
Zr345       O346   2.434       .  S
Zr345       O347   2.437       .  S
Zr345       O351   2.364       .  S
Zr345       O352   2.357       .  S
Zr345       O375   2.358       .  S
Zr345       O377   2.359       .  S
O346        H389   0.990       .  S
O347        H388   0.990       .  S
O347        H392   0.990       .  S
Zr348       O349   2.437       .  S
Zr348       O350   2.434       .  S
Zr348       O352   2.365       .  S
Zr348       O351   2.361       .  S
Zr348       O376   2.362       .  S
Zr348       O378   2.362       .  S
O349        H390   0.990       .  S
O349        H393   0.990       .  S
O350        H383   0.990       .  S
O351       Zr371   2.386       .  S
O352       Zr372   2.386       .  S
O352        H379   0.966       .  S
O353       Zr365   2.441       .  S
O353        C355   1.286       .  A
O354       Zr372   2.420       .  S
O354        C355   1.285       .  A
C355        C489   1.433       .  S
O356       Zr368   2.433       .  S
O356        C358   1.284       .  A
O357       Zr371   2.435       .  S
O357        C358   1.287       .  A
C358        C485   1.433       .  S
O359       Zr368   2.438       .  S
O359        C361   1.284       .  A
O360       Zr372   2.422       .  S
O360        C361   1.284       .  A
C361        C516   1.431       .  S
O362       Zr365   2.442       .  S
O362        C364   1.286       .  A
O363       Zr371   2.427       .  S
O363        C364   1.286       .  A
C364        C461   1.431       .  S
Zr365       O366   2.435       .  S
Zr365       O367   2.435       .  S
Zr365       O373   2.380       .  S
Zr365       O374   2.377       .  S
Zr365       O377   2.373       .  S
Zr365       O375   2.364       .  S
O366        H386   0.990       .  S
O366        H391   0.990       .  S
O367        H387   0.990       .  S
Zr368       O369   2.434       .  S
Zr368       O370   2.440       .  S
Zr368       O374   2.377       .  S
Zr368       O373   2.372       .  S
Zr368       O378   2.367       .  S
Zr368       O376   2.377       .  S
O369        H385   0.990       .  S
O370        H384   0.990       .  S
O370        H394   0.991       .  S
Zr371       O374   2.401       .  S
Zr371       O376   2.384       .  S
Zr371       O377   2.388       .  S
Zr372       O373   2.404       .  S
Zr372       O375   2.373       .  S
Zr372       O378   2.375       .  S
O373        H381   0.965       .  S
O376        H380   0.965       .  S
O377        H382   0.964       .  S
O395       Zr407   2.432       .  S
O395        C397   1.282       .  A
O396       Zr433   2.425       .  S
O396        C397   1.285       .  A
C397        C512   1.427       .  S
O398       Zr410   2.439       .  S
O398        C400   1.286       .  A
O399       Zr434   2.407       .  S
O399        C400   1.282       .  A
C400        C468   1.426       .  S
O401       Zr410   2.439       .  S
O401        C403   1.286       .  A
O402       Zr433   2.433       .  S
O402        C403   1.287       .  A
C403        C501   1.433       .  S
O404       Zr407   2.434       .  S
O404        C406   1.284       .  A
O405       Zr434   2.425       .  S
O405        C406   1.285       .  A
C406        C476   1.430       .  S
Zr407       O408   2.436       .  S
Zr407       O409   2.440       .  S
Zr407       O413   2.371       .  S
Zr407       O414   2.369       .  S
Zr407       O437   2.360       .  S
Zr407       O439   2.379       .  S
O408        H451   0.990       .  S
O409        H450   0.990       .  S
O409        H454   0.991       .  S
Zr410       O411   2.433       .  S
Zr410       O412   2.433       .  S
Zr410       O414   2.374       .  S
Zr410       O413   2.376       .  S
Zr410       O438   2.366       .  S
Zr410       O440   2.369       .  S
O411        H452   0.990       .  S
O411        H455   0.990       .  S
O412        H445   0.990       .  S
O413       Zr433   2.397       .  S
O414       Zr434   2.398       .  S
O414        H441   0.965       .  S
O415       Zr427   2.415       .  S
O415        C417   1.281       .  A
O416       Zr434   2.420       .  S
O416        C417   1.284       .  A
C417        C508   1.422       .  S
O418       Zr430   2.411       .  S
O418        C420   1.280       .  A
O419       Zr433   2.427       .  S
O419        C420   1.286       .  A
C420        C472   1.420       .  S
O421       Zr430   2.415       .  S
O421        C423   1.281       .  A
O422       Zr434   2.435       .  S
O422        C423   1.287       .  A
C423        C500   1.429       .  S
O424       Zr427   2.409       .  S
O424        C426   1.279       .  A
O425       Zr433   2.437       .  S
O425        C426   1.287       .  A
C426        C477   1.425       .  S
Zr427       O428   2.434       .  S
Zr427       O429   2.435       .  S
Zr427       O435   2.364       .  S
Zr427       O436   2.364       .  S
Zr427       O439   2.372       .  S
Zr427       O437   2.352       .  S
O428        H448   0.990       .  S
O428        H453   0.990       .  S
O429        H449   0.990       .  S
Zr430       O431   2.434       .  S
Zr430       O432   2.437       .  S
Zr430       O436   2.372       .  S
Zr430       O435   2.363       .  S
Zr430       O440   2.363       .  S
Zr430       O438   2.352       .  S
O431        H447   0.990       .  S
O432        H446   0.990       .  S
O432        H456   0.990       .  S
Zr433       O436   2.391       .  S
Zr433       O438   2.383       .  S
Zr433       O439   2.388       .  S
Zr434       O435   2.387       .  S
Zr434       O437   2.368       .  S
Zr434       O440   2.376       .  S
O435        H443   0.966       .  S
O438        H442   0.963       .  S
O439        H444   0.965       .  S
C457        C458   1.202       .  T
C458        C459   1.406       .  S
C459        C460   1.201       .  T
C461        C462   1.204       .  T
C462        C463   1.410       .  S
C463        C464   1.204       .  T
C465        C466   1.201       .  T
C466        C467   1.404       .  S
C467        C468   1.201       .  T
C469        C470   1.198       .  T
C470        C471   1.401       .  S
C471        C472   1.198       .  T
C473        C474   1.203       .  T
C474        C475   1.408       .  S
C475        C476   1.203       .  T
C477        C478   1.201       .  T
C478        C479   1.405       .  S
C479        C480   1.201       .  T
C481        C482   1.202       .  T
C482        C483   1.406       .  S
C483        C484   1.201       .  T
C485        C486   1.205       .  T
C486        C487   1.411       .  S
C487        C488   1.205       .  T
C489        C490   1.205       .  T
C490        C491   1.411       .  S
C491        C492   1.205       .  T
C493        C494   1.204       .  T
C494        C495   1.410       .  S
C495        C496   1.203       .  T
C497        C498   1.203       .  T
C498        C499   1.408       .  S
C499        C500   1.203       .  T
C501        C502   1.205       .  T
C502        C503   1.411       .  S
C503        C504   1.205       .  T
C505        C506   1.199       .  T
C506        C507   1.401       .  S
C507        C508   1.199       .  T
C509        C510   1.203       .  T
C510        C511   1.407       .  S
C511        C512   1.202       .  T
C513        C514   1.204       .  T
C514        C515   1.410       .  S
C515        C516   1.204       .  T
C517        C518   1.202       .  T
C518        C519   1.406       .  S
C519        C520   1.201       .  T
C521        C522   1.352       .  D
C521        H523   1.086       .  S
C522        H524   1.086       .  S
C525        C526   1.355       .  D
C525        H527   1.087   1_545  S
C526        H528   1.086       .  S
C529        C530   1.354       .  D
C529        H531   1.088   1_455  S
C530        H532   1.084       .  S
C533        C534   1.356       .  D
C533        H535   1.087   1_655  S
C534        H536   1.086       .  S
C537        C538   1.351       .  D
C537        H539   1.086       .  S
C538        H540   1.087   1_565  S
C541        C542   1.351       .  D
C541        H543   1.086   1_545  S
C542        H544   1.085   1_554  S
C545        C546   1.356       .  D
C545        H547   1.087   1_455  S
C546        H548   1.086   1_556  S
C549        C550   1.356       .  D
C549        H551   1.088   1_654  S
C550        H552   1.084       .  S
