geometry optimzed in LAMMPS
_audit_creation_date              2020-11-30 
_audit_creation_method            'lammps2cif' 
_symmetry_space_group_name_H-M    'P1' 
_symmetry_Int_Tables_number       1 
_symmetry_cell_setting            triclinic 
loop_ 
_symmetry_equiv_pos_as_xyz 
  x,y,z 
_cell_length_a                    39.63906355 
_cell_length_b                    39.57805740368146 
_cell_length_c                    98.81735836379009 
_cell_angle_alpha                 89.78922656141064 
_cell_angle_beta                  90.17020943339337 
_cell_angle_gamma                 120.25870807156923 
loop_ 
_atom_site_label 
_atom_site_type_symbol 
_atom_site_fract_x 
_atom_site_fract_y 
_atom_site_fract_z 
_atom_site_charge 
C1          C  0.65447064  0.08674972  0.72926049     0.79900
N2          N  0.68855047  0.09905199  0.72250577    -0.78400
C3          C  0.69112851  0.07685703  0.71255609     0.82300
N4          N  0.65917491  0.04212213  0.70927894    -0.78400
C5          C  0.62470071  0.02939915  0.71582355     0.82400
N6          N  0.62280836  0.05182573  0.72585266    -0.80100
C7          C  0.97397947  0.17076789  0.64086364     0.79900
N8          N  0.00746464  0.20203440  0.64540284    -0.78400
C9          C  0.00777488  0.22065802  0.65693865     0.82300
N10         N  0.97397211  0.20757156  0.66397595    -0.78400
C11         C  0.94011695  0.17658405  0.65944654     0.82400
N12         N  0.94040720  0.15836621  0.64789671    -0.80100
C13         C  0.53988809  0.85080499  0.80648749     0.79900
N14         N  0.56334962  0.83983346  0.81275790    -0.78400
C15         C  0.58512433  0.85956692  0.82363256     0.82300
N16         N  0.58321316  0.89072175  0.82829772    -0.78400
C17         C  0.56046609  0.90278072  0.82210262     0.82400
N18         N  0.53862664  0.88254393  0.81115934    -0.80100
C19         C  0.76270740  0.75447757  0.89708796     0.79900
N20         N  0.76050486  0.72032530  0.89344133    -0.78400
C21         C  0.74040615  0.70102162  0.88214487     0.82300
N22         N  0.72341720  0.71671132  0.87432853    -0.78400
C23         C  0.72630880  0.75135011  0.87768205     0.82400
N24         N  0.74557574  0.76974240  0.88917869    -0.80100
C25         C  0.87823664  0.54861721  0.49494649     0.79900
N26         N  0.90235593  0.53721613  0.50048296    -0.78400
C27         C  0.90276429  0.50531475  0.49567517     0.82300
N28         N  0.87864743  0.48479234  0.48533443    -0.78400
C29         C  0.85423393  0.49557477  0.47973608     0.82400
N30         N  0.85423590  0.52769406  0.48457518    -0.80100
C31         C  0.09228483  0.40608532  0.56347803     0.79900
N32         N  0.09336065  0.37406822  0.55909069    -0.78400
C33         C  0.07745253  0.35761953  0.54691066     0.82300
N34         N  0.06049014  0.37351935  0.53923899    -0.78400
C35         C  0.06000330  0.40585359  0.54339603     0.82400
N36         N  0.07573120  0.42186363  0.55555102    -0.80100
C37         C  0.65247021  0.50873760  0.97913025     0.79900
N38         N  0.61835109  0.49648539  0.98586787    -0.78400
C39         C  0.61733536  0.51487786  0.99730104     0.82300
N40         N  0.65083738  0.54559766  0.00209125    -0.78400
C41         C  0.68517778  0.55838171  0.99548162     0.82400
N42         N  0.68578555  0.53994082  0.98395726    -0.80100
C43         C  0.32531301  0.41893203  0.06399181     0.79900
N44         N  0.29327626  0.38580978  0.05958946    -0.78400
C45         C  0.29591737  0.36431901  0.04941164     0.82300
N46         N  0.33103287  0.37644417  0.04342386    -0.78400
C47         C  0.36320894  0.40999286  0.04752799     0.82400
N48         N  0.36010277  0.43112755  0.05775906    -0.80100
C49         C  0.96389519  0.75371158  0.39079647     0.79900
N50         N  0.93131099  0.72205498  0.38583710    -0.78400
C51         C  0.93202812  0.70635662  0.37368794     0.82300
N52         N  0.96576213  0.72299672  0.36650038    -0.78400
C53         C  0.99852248  0.75451590  0.37133158     0.82400
N54         N  0.99757140  0.76948882  0.38356422    -0.80100
C55         C  0.29248664  0.85706069  0.30447017     0.79900
N56         N  0.25729344  0.84573261  0.31025022    -0.78400
C57         C  0.25433016  0.86368859  0.32149050     0.82300
N58         N  0.28733618  0.89321238  0.32706301    -0.78400
C59         C  0.32286652  0.90506062  0.32149539     0.82400
N60         N  0.32534485  0.88665692  0.31024832    -0.80100
C61         C  0.17065124  0.16679945  0.15012982     0.79900
N62         N  0.18748651  0.15216870  0.15849870    -0.78400
C63         C  0.20887386  0.17282538  0.16936574     0.82300
N64         N  0.21376578  0.20872391  0.17179976    -0.78400
C65         C  0.19740905  0.22391459  0.16349960     0.82400
N66         N  0.17601196  0.20294767  0.15268441    -0.80100
C67         C  0.39296815  0.06562352  0.23759280     0.79900
N68         N  0.37255375  0.07943471  0.23086387    -0.78400
C69         C  0.35607069  0.06471824  0.21868825     0.82300
N70         N  0.36009679  0.03558217  0.21312611    -0.78400
C71         C  0.38031770  0.02113831  0.21975757     0.82400
N72         N  0.39663778  0.03624471  0.23202323    -0.80100
C73         C  0.07978786  0.65161727  0.80349805     0.79900
N74         N  0.09137608  0.68515516  0.81057126    -0.78400
C75         C  0.07101044  0.68525854  0.82160453     0.82300
N76         N  0.03858370  0.65170310  0.82538405    -0.78400
C77         C  0.02654467  0.61804432  0.81844910     0.82400
N78         N  0.04720606  0.61818752  0.80748739    -0.80100
C79         C  0.17696222  0.97019916  0.89414082     0.79900
N80         N  0.16100879  0.93775357  0.88623545    -0.78400
C81         C  0.18026687  0.93582676  0.87517024     0.82300
N82         N  0.21583578  0.96697326  0.87210966    -0.78400
C83         C  0.23199904  0.99965883  0.87987752     0.82400
N84         N  0.21254940  0.00113018  0.89093172    -0.80100
C85         C  0.75256607  0.74285593  0.64368083     0.79900
N86         N  0.72070208  0.74330790  0.64856468    -0.78400
C87         C  0.70550110  0.72720633  0.66086249     0.82300
N88         N  0.72194238  0.70997164  0.66809684    -0.78400
C89         C  0.75361045  0.70929661  0.66332012     0.82400
N90         N  0.76852515  0.72560622  0.65113199    -0.80100
C91         C  0.85648463  0.52036778  0.73016748     0.79900
N92         N  0.84257653  0.53999555  0.72302425    -0.78400
C93         C  0.86111896  0.56066987  0.71181403     0.82300
N94         N  0.89403217  0.56156298  0.70757772    -0.78400
C95         C  0.90863895  0.54238968  0.71471278     0.82400
N96         N  0.89001902  0.52213070  0.72606194    -0.80100
C97         C  0.42346718  0.28871950  0.48041982     0.79900
N98         N  0.39244392  0.25545215  0.48532538    -0.78400
C99         C  0.37422470  0.25623069  0.49687655     0.82300
N100        N  0.38708192  0.29083076  0.50336247    -0.78400
C101        C  0.41797934  0.32417751  0.49853281     0.82400
N102        N  0.43597878  0.32289712  0.48706998    -0.80100
C103        C  0.50920564  0.61997784  0.56171606     0.79900
N104        N  0.49692832  0.58598885  0.55494445    -0.78400
C105        C  0.51528785  0.58485646  0.54355125     0.82300
N106        N  0.54625622  0.61839341  0.53886368    -0.78400
C107        C  0.55902123  0.65282095  0.54544552     0.82400
N108        N  0.54053625  0.65330243  0.55695483    -0.80100
C109        C  0.37565943  0.06209607  0.99174206     0.79900
N110        N  0.39103311  0.04360104  0.99895338    -0.78400
C111        C  0.42220740  0.04185389  0.99408049     0.82300
N112        N  0.43861154  0.05978744  0.98219533    -0.78400
C113        C  0.42384994  0.07862930  0.97498120     0.82400
N114        N  0.39214267  0.07944522  0.97973844    -0.80100
C115        C  0.57553032  0.87099535  0.04520499     0.79900
N116        N  0.55449727  0.84671372  0.05549073    -0.78400
C117        C  0.52015972  0.84339500  0.05943579     0.82300
N118        N  0.50698751  0.86473679  0.05281650    -0.78400
C119        C  0.52772481  0.88924929  0.04251186     0.82400
N120        N  0.56203332  0.89219753  0.03875417    -0.80100
C121        C  0.17509703  0.17351753  0.39470427     0.79900
N122        N  0.20779092  0.17428899  0.39016311    -0.78400
C123        C  0.22824139  0.19708223  0.37949108     0.82300
N124        N  0.21576032  0.21967765  0.37334504    -0.78400
C125        C  0.18289935  0.21913273  0.37767857     0.82400
N126        N  0.16270356  0.19580893  0.38831768    -0.80100
C127        C  0.08167987  0.40209011  0.30521027     0.79900
N128        N  0.05099213  0.40493442  0.30993754    -0.78400
C129        C  0.03280804  0.38696215  0.32166917     0.82300
N130        N  0.04645589  0.36696175  0.32886123    -0.78400
C131        C  0.07704281  0.36383986  0.32428054     0.82400
N132        N  0.09447610  0.38134443  0.31241406    -0.80100
C133        C  0.86327161  0.30417603  0.23374986     0.79900
N134        N  0.84704206  0.27033707  0.22653141    -0.78400
C135        C  0.86279332  0.26850090  0.21455916     0.82300
N136        N  0.89518898  0.30074577  0.20989976    -0.78400
C137        C  0.91175573  0.33467675  0.21696545     0.82400
N138        N  0.89586496  0.33622616  0.22895529    -0.80100
C139        C  0.77338309  0.97820733  0.14692823     0.79900
N140        N  0.74036272  0.94556690  0.15110412    -0.78400
C141        C  0.71859370  0.94700911  0.16143310     0.82300
N142        N  0.72996196  0.98190623  0.16750906    -0.78400
C143        C  0.76262144  0.01497207  0.16337364     0.82400
N144        N  0.78415691  0.01283963  0.15308981    -0.80100
C145        C  0.50644561  0.62710848  0.31382180     0.79900
N146        N  0.52666449  0.66077283  0.32093950    -0.78400
C147        C  0.55019493  0.66337248  0.33133892     0.82300
N148        N  0.55328997  0.63179475  0.33468135    -0.78400
C149        C  0.53336414  0.59785740  0.32767590     0.82400
N150        N  0.51000144  0.59562301  0.31717098    -0.80100
C151        C  0.75886568  0.95964066  0.39407748     0.79900
N152        N  0.76014289  0.99265847  0.38939007    -0.78400
C153        C  0.73878402  0.99136715  0.37837272     0.82300
N154        N  0.71599241  0.95655354  0.37211387    -0.78400
C155        C  0.71472301  0.92350908  0.37658585     0.82400
N156        N  0.73604628  0.92534832  0.38757842    -0.80100
C157        C  0.44086951  0.29988144  0.72541570     0.79900
N158        N  0.42378757  0.26640155  0.71807519    -0.78400
C159        C  0.40163346  0.26250138  0.70706681     0.82300
N160        N  0.39700629  0.29296334  0.70324047    -0.78400
C161        C  0.41370486  0.32662323  0.71054328     0.82400
N162        N  0.43552983  0.32985918  0.72161666    -0.80100
C163        C  0.19432474  0.96871866  0.64193296     0.79900
N164        N  0.21673654  0.00347034  0.64830012    -0.78400
C165        C  0.23970163  0.00632970  0.65896125     0.82300
N166        N  0.24019172  0.97405249  0.66327425    -0.78400
C167        C  0.21732646  0.93895436  0.65726120     0.82400
N168        N  0.19453172  0.93640548  0.64656421    -0.80100
C169        C  0.66512184  0.05546651  0.49392686     0.79900
N170        N  0.63117372  0.03666501  0.50101287    -0.78400
C171        C  0.60070862  0.04180663  0.49776910     0.82300
N172        N  0.60404994  0.06538093  0.48721052    -0.78400
C173        C  0.63751763  0.08362933  0.47986570     0.82400
N174        N  0.66801220  0.07885038  0.48336332    -0.80100
C175        C  0.30759306  0.83638779  0.56140495     0.79900
N176        N  0.34070892  0.85919581  0.55434124    -0.78400
C177        C  0.34038803  0.87888844  0.54314590     0.82300
N178        N  0.30619196  0.87581342  0.53898096    -0.78400
C179        C  0.27273395  0.85359814  0.54613745     0.82400
N180        N  0.27367824  0.83408403  0.55737169    -0.80100
C181        C  0.63709437  0.49818217  0.22672006     0.79900
N182        N  0.60661244  0.50166328  0.22203427    -0.78400
C183        C  0.61039127  0.52244933  0.21054019     0.82300
N184        N  0.64513070  0.54022978  0.20392400    -0.78400
C185        C  0.67576943  0.53715043  0.20849938     0.82400
N186        N  0.67161477  0.51631374  0.21994506    -0.80100
C187        C  0.96925402  0.74885408  0.14534961     0.79900
N188        N  0.93572968  0.72694223  0.15243497    -0.78400
C189        C  0.93460601  0.70407342  0.16288880     0.82300
N190        N  0.96729254  0.70314274  0.16634224    -0.78400
C191        C  0.00131851  0.72552967  0.15957779     0.82400
N192        N  0.00181369  0.74789770  0.14903623    -0.80100
C193        C  0.84364460  0.29519946  0.97899543     0.79900
N194        N  0.84367862  0.26249618  0.98319719    -0.78400
C195        C  0.86327104  0.26311784  0.99459974     0.82300
N196        N  0.88352132  0.29708117  0.00164055    -0.78400
C197        C  0.88395847  0.33009765  0.99750493     0.82400
N198        N  0.86412283  0.32879787  0.98612301    -0.80100
C199        C  0.08442032  0.62340888  0.06450107     0.79900
N200        N  0.06339820  0.58920229  0.05772660    -0.78400
C201        C  0.04055384  0.58623894  0.04704639     0.82300
N202        N  0.03870617  0.61810215  0.04300374    -0.78400
C203        C  0.05927550  0.65257942  0.04972240     0.82400
N204        N  0.08219798  0.65505475  0.06039108    -0.80100
C205        C  0.29112142  0.38798976  0.80527162     0.79900
N206        N  0.25673439  0.36774622  0.81195990    -0.78400
C207        C  0.25483222  0.35096797  0.82414422     0.82300
N208        N  0.28805324  0.35462824  0.82961500    -0.78400
C209        C  0.32283723  0.37455974  0.82302176     0.82400
N210        N  0.32422342  0.39172416  0.81088970    -0.80100
C211        C  0.96601918  0.15794160  0.89364570     0.79900
N212        N  0.99895820  0.17696847  0.88612132    -0.78400
C213        C  0.00016250  0.19718686  0.87486906     0.82300
N214        N  0.96780410  0.19864404  0.87125358    -0.78400
C215        C  0.93450164  0.17998055  0.87873497     0.82400
N216        N  0.93389176  0.15974017  0.88998457    -0.80100
O217        O  0.60992934  0.22243830  0.81692944    -0.86800
O218        O  0.76328042  0.38514336  0.86053505    -0.87000
O219        O  0.71828343  0.34420348  0.81790185    -0.88700
O220        O  0.72744047  0.26267416  0.84471566    -0.87400
O221        O  0.69447141  0.22777342  0.86354165    -0.87000
O222        O  0.68646748  0.37913470  0.81851313    -0.88400
O223        O  0.76351572  0.35160748  0.84168739    -0.86900
O224        O  0.67690459  0.25621339  0.81746799    -0.86400
Zr225      Zr  0.69732149  0.29996405  0.83701378     2.84300
O226        O  0.69761654  0.29851974  0.86063767    -1.08400
O227        O  0.64099832  0.29865354  0.82932605    -1.09200
C228        C  0.64373645  0.23147167  0.81206082     1.06300
C229        C  0.78008200  0.38026791  0.85011875     1.06200
C230        C  0.71108665  0.37043554  0.81330515     1.09200
C231        C  0.72234806  0.23964272  0.85478096     1.07000
H232        H  0.71731196  0.37892531  0.84175435     0.32500
O233        O  0.69550878  0.35475263  0.84499963    -1.29400
H234        H  0.64486828  0.22075863  0.84080826     0.32200
O235        O  0.64278444  0.24235505  0.84434335    -1.31100
O236        O  0.67338478  0.37134708  0.88868617    -0.86800
O237        O  0.51796456  0.21152051  0.84463748    -0.88300
O238        O  0.67713300  0.42091431  0.84593315    -0.86900
O239        O  0.68378213  0.26317209  0.88790818    -0.87000
O240        O  0.60438250  0.17366344  0.85966513    -0.86700
O241        O  0.59950313  0.33041958  0.81689982    -0.86500
O242        O  0.55351579  0.33315957  0.86008882    -0.86800
O243        O  0.56396332  0.25122444  0.88739897    -0.86300
O244        O  0.58674855  0.36720093  0.84115299    -0.87400
O245        O  0.59425897  0.21468956  0.88628932    -0.86500
O246        O  0.70954189  0.41930088  0.86502751    -0.86900
O247        O  0.56560868  0.26350289  0.81713019    -0.86600
O248        O  0.56986256  0.17421196  0.84112988    -0.86300
O249        O  0.72019466  0.33030795  0.88713783    -0.86700
O250        O  0.60647392  0.34132239  0.88784120    -0.87000
O251        O  0.51858167  0.24440354  0.86383612    -0.88300
Zr252      Zr  0.69573857  0.35303222  0.86863466     2.83100
Zr253      Zr  0.58608579  0.24112522  0.83673817     2.83500
Zr254      Zr  0.63946068  0.35358945  0.83719709     2.84100
Zr255      Zr  0.64188594  0.24121920  0.86800209     2.83400
Zr256      Zr  0.58459380  0.29635802  0.86835722     2.84200
O257        O  0.58592127  0.24107917  0.86036884    -1.08900
O258        O  0.63976623  0.35323231  0.86089380    -1.08400
C259        C  0.64009432  0.36406360  0.89344855     1.06200
C260        C  0.50131650  0.21683429  0.85505230     1.08900
C261        C  0.69903612  0.43691662  0.85646113     1.06400
C262        C  0.71033714  0.29672555  0.89247677     1.06800
C263        C  0.58137095  0.15690216  0.84945182     1.06400
C264        C  0.57507409  0.29684119  0.81173647     1.05900
C265        C  0.55832067  0.35529025  0.84968742     1.06300
C266        C  0.57050845  0.22417231  0.89166940     1.05900
H267        H  0.56040271  0.29359968  0.84114748     0.32500
O268        O  0.58421486  0.29578620  0.84463688    -1.30000
H269        H  0.64018852  0.29553405  0.88586662     0.32600
O270        O  0.64037617  0.29611268  0.87609739    -1.31400
O271        O  0.90007601  0.92586542  0.98610987    -0.86800
O272        O  0.04341984  0.91289579  0.03353366    -0.87000
O273        O  0.02095919  0.93238219  0.98711552    -0.88700
O274        O  0.92563707  0.84480640  0.01137639    -0.87400
O275        O  0.89173717  0.84614595  0.02991786    -0.87000
O276        O  0.05728817  0.99928586  0.98736194    -0.88400
O277        O  0.01154708  0.88057450  0.01427182    -0.86900
O278        O  0.93156835  0.89062878  0.98662513    -0.86400
Zr279      Zr  0.97559375  0.91159669  0.00606289     2.84300
O280        O  0.97411176  0.91162133  0.02968973    -1.08400
O281        O  0.98007566  0.96923183  0.99803951    -1.09200
C282        C  0.90675060  0.89922699  0.98152464     1.06300
C283        C  0.03292793  0.88520118  0.02479255     1.06200
C284        C  0.04740922  0.96556707  0.98222449     1.09200
C285        C  0.89838036  0.82814126  0.02031462     1.07000
H286        H  0.05474278  0.96335931  0.01142548     0.32500
O287        O  0.03275271  0.96544669  0.01439737    -1.29400
H288        H  0.89679131  0.89190309  0.00971212     0.32200
O289        O  0.92051898  0.91397929  0.01309354    -1.31100
O290        O  0.05158761  0.00989615  0.05755108    -0.86800
O291        O  0.90753079  0.02100621  0.00938252    -0.88300
O292        O  0.10307799  0.03910751  0.01254871    -0.86900
O293        O  0.93724458  0.88823969  0.05591764    -0.87000
O294        O  0.85411452  0.89850973  0.03064165    -0.86700
O295        O  0.01932418  0.04806587  0.98655866    -0.86500
O296        O  0.03177653  0.09197015  0.03253079    -0.86800
O297        O  0.93271955  0.00485110  0.05572143    -0.86300
O298        O  0.06649289  0.09097375  0.01424353    -0.87400
O299        O  0.89873042  0.93776700  0.05595584    -0.86500
O300        O  0.09978655  0.00463248  0.03162769    -0.86900
O301        O  0.95231929  0.01406596  0.98560026    -0.86600
O302        O  0.85644606  0.93327455  0.01180803    -0.86300
O303        O  0.00413040  0.92083056  0.05724717    -0.86700
O304        O  0.01884913  0.04402731  0.05701291    -0.87000
O305        O  0.94005509  0.05381199  0.02858195    -0.88300
Zr306      Zr  0.03067491  0.96584499  0.03807457     2.83100
Zr307      Zr  0.92502647  0.97154225  0.00504691     2.83500
Zr308      Zr  0.03694150  0.02333298  0.00644172     2.84100
Zr309      Zr  0.91945595  0.91433213  0.03670384     2.83400
Zr310      Zr  0.97884526  0.02558249  0.03681326     2.84200
O311        O  0.92219486  0.97132206  0.02866045    -1.08900
O312        O  0.03436182  0.02325485  0.03005243    -1.08400
C313        C  0.04231519  0.03435388  0.06252283     1.06200
C314        C  0.91713433  0.04785255  0.01838361     1.08900
C315        C  0.11888622  0.02829874  0.02179377     1.06400
C316        C  0.96961239  0.89544534  0.06151381     1.06800
C317        C  0.83798247  0.90937903  0.02164645     1.06400
C318        C  0.98633049  0.03894175  0.98092001     1.05900
C319        C  0.06047068  0.10869694  0.02411697     1.06300
C320        C  0.90771451  0.97141962  0.06094914     1.05900
H321        H  0.98430955  0.05040236  0.00971138     0.32500
O322        O  0.98195551  0.02646665  0.01317595    -1.30000
H323        H  0.97460563  0.96807037  0.05474378     0.32600
O324        O  0.97571525  0.96852835  0.04498460    -1.31400
O325        O  0.68156398  0.37082664  0.38959682    -0.86800
O326        O  0.67087057  0.20846117  0.34610106    -0.87000
O327        O  0.66498151  0.24851684  0.38976470    -0.88700
O328        O  0.75507910  0.32662042  0.36150882    -0.87400
O329        O  0.75660945  0.36160795  0.34272178    -0.87000
O330        O  0.59813178  0.21488294  0.38956298    -0.88400
O331        O  0.70416002  0.24078357  0.36524092    -0.86900
O332        O  0.71438603  0.33698060  0.38903135    -0.86400
Zr333      Zr  0.68827958  0.29133838  0.37012617     2.84300
O334        O  0.68813236  0.29197754  0.34653756    -1.08400
O335        O  0.63406814  0.29362602  0.37818652    -1.09200
C336        C  0.70665605  0.36213497  0.39434048     1.06300
C337        C  0.69405022  0.21396819  0.35616292     1.06200
C338        C  0.63147114  0.22337901  0.39477820     1.09200
C339        C  0.77259835  0.34892324  0.35123233     1.07000
H340        H  0.62903633  0.21250523  0.36583110     0.32500
O341        O  0.63084484  0.23635430  0.36252648    -1.29400
H342        H  0.71577237  0.37080344  0.36549777     0.32200
O343        O  0.69166319  0.34880723  0.36229949    -1.31100
O344        O  0.58457527  0.21379380  0.32039230    -0.86800
O345        O  0.60046590  0.38176338  0.36231752    -0.88300
O346        O  0.54650757  0.17112514  0.36250792    -0.86900
O347        O  0.71221798  0.32559067  0.31974683    -0.87000
O348        O  0.71926514  0.41681438  0.34561274    -0.86700
O349        O  0.55746607  0.26313705  0.38989625    -0.86500
O350        O  0.51093756  0.25803430  0.34676139    -0.86800
O351        O  0.60048459  0.33767142  0.31915218    -0.86300
O352        O  0.50963839  0.22354786  0.36563642    -0.87400
O353        O  0.66749881  0.37242477  0.31952321    -0.86500
O354        O  0.58105923  0.17100547  0.34389838    -0.86900
O355        O  0.59190947  0.33018822  0.38963519    -0.86600
O356        O  0.68733980  0.41754091  0.36486929    -0.86300
O357        O  0.67850988  0.25852961  0.32008199    -0.86700
O358        O  0.54945963  0.24541200  0.32169142    -0.87000
O359        O  0.56619791  0.34814219  0.34347029    -0.88300
Zr360      Zr  0.63168185  0.23724265  0.33881468     2.83100
Zr361      Zr  0.63705397  0.35091429  0.37037472     2.83500
Zr362      Zr  0.57657396  0.23895248  0.37047625     2.84100
Zr363      Zr  0.69023892  0.34869189  0.33853764     2.83400
Zr364      Zr  0.57881644  0.29544552  0.33905533     2.84200
O365        O  0.63597498  0.35037693  0.34671765    -1.08900
O366        O  0.57704597  0.23901236  0.34686118    -1.08400
C367        C  0.55689159  0.21988337  0.31659396     1.06200
C368        C  0.57797071  0.37636319  0.35204504     1.08900
C369        C  0.55279088  0.15410958  0.35244935     1.06400
C370        C  0.70475195  0.29197612  0.31522093     1.06800
C371        C  0.71392088  0.43432575  0.35569818     1.06400
C372        C  0.56619682  0.29686029  0.39476374     1.05900
C373        C  0.49303670  0.23461464  0.35676793     1.06300
C374        C  0.63398222  0.36373423  0.31437005     1.05900
H375        H  0.55772395  0.29867054  0.36606894     0.32500
O376        O  0.57943057  0.29649799  0.36273381    -1.30000
H377        H  0.63270709  0.29317598  0.32085733     0.32600
O378        O  0.63318783  0.29362351  0.33063351    -1.31400
O379        O  0.36559256  0.75016981  0.69848919    -0.86800
O380        O  0.34278618  0.58733759  0.65207732    -0.87000
O381        O  0.43007364  0.69427617  0.67859493    -0.88700
O382        O  0.35022259  0.70861859  0.65220054    -0.87400
O383        O  0.28335805  0.67798852  0.65094776    -0.87000
O384        O  0.42373909  0.65822183  0.69767351    -0.88400
O385        O  0.38285076  0.65399685  0.65224554    -0.86900
O386        O  0.39941941  0.74744984  0.68012600    -0.86400
Zr387      Zr  0.36544108  0.68017858  0.67162220     2.84300
O388        O  0.30760720  0.62813086  0.66295101    -1.08400
O389        O  0.36132429  0.67849284  0.69516034    -1.09200
C390        C  0.39490698  0.76539332  0.69027165     1.06300
C391        C  0.37015833  0.61970474  0.64706274     1.06200
C392        C  0.44401171  0.68267810  0.68820217     1.09200
C393        C  0.31799852  0.70243728  0.64666372     1.07000
H394        H  0.37931329  0.61764920  0.67675423     0.32500
O395        O  0.35792584  0.62090493  0.67971196    -1.29400
H396        H  0.31698461  0.71165279  0.67501259     0.32200
O397        O  0.31271437  0.68682819  0.67843309    -1.31100
O398        O  0.24650223  0.50367728  0.67610802    -0.86800
O399        O  0.25945065  0.66732706  0.71964472    -0.88300
O400        O  0.36825161  0.56799393  0.69824804    -0.86900
O401        O  0.22789918  0.58770717  0.65095252    -0.87000
O402        O  0.24250515  0.68695783  0.67426812    -0.86700
O403        O  0.38157349  0.66709903  0.72202585    -0.86500
O404        O  0.25877997  0.54379094  0.72085439    -0.86800
O405        O  0.18009644  0.56392980  0.69568301    -0.86300
O406        O  0.32553113  0.57201537  0.72153934    -0.87400
O407        O  0.18668949  0.60140653  0.67696678    -0.86500
O408        O  0.33357316  0.53659581  0.67916402    -0.86900
O409        O  0.35299139  0.70504197  0.72143938    -0.86600
O410        O  0.27591243  0.71941266  0.69341950    -0.86300
O411        O  0.25610513  0.54945444  0.65201459    -0.86700
O412        O  0.21166346  0.50641524  0.69410653    -0.87000
O413        O  0.22192408  0.60048350  0.71988062    -0.88300
Zr414      Zr  0.29929721  0.56933095  0.67136831     2.83100
Zr415      Zr  0.30901615  0.68552023  0.70211760     2.83500
Zr416      Zr  0.35455484  0.62021604  0.70343252     2.84100
Zr417      Zr  0.25467604  0.63393916  0.66993252     2.83400
Zr418      Zr  0.24389681  0.57429608  0.70189779     2.84200
O419        O  0.25171035  0.63320831  0.69354616    -1.08900
O420        O  0.29669881  0.56811608  0.69494658    -1.08400
C421        C  0.21773895  0.48797139  0.68451268     1.06200
C422        C  0.23108028  0.63475033  0.72426916     1.08900
C423        C  0.35627552  0.54082860  0.68919372     1.06400
C424        C  0.23269282  0.55946430  0.64671147     1.06800
C425        C  0.25437749  0.71494061  0.68293689     1.06400
C426        C  0.37691199  0.69519171  0.72647966     1.05900
C427        C  0.29074871  0.54739228  0.72576103     1.06300
C428        C  0.16691868  0.57839301  0.68680491     1.05900
H429        H  0.30052217  0.62638407  0.72048602     0.32500
O430        O  0.30163165  0.62661978  0.71071820    -1.30000
H431        H  0.22173160  0.55397298  0.67467454     0.32600
O432        O  0.24597302  0.57493164  0.67822559    -1.31400
O433        O  0.28496553  0.55560101  0.15156984    -0.86800
O434        O  0.43488278  0.72529114  0.19424094    -0.87000
O435        O  0.38932564  0.68017387  0.15049959    -0.88700
O436        O  0.40199935  0.60312527  0.17875585    -0.87400
O437        O  0.37063835  0.57104727  0.19827307    -0.87000
O438        O  0.35417773  0.71172364  0.15025933    -0.88400
O439        O  0.43672200  0.69200922  0.17553676    -0.86900
O440        O  0.35176670  0.59277697  0.15182221    -0.86400
Zr441      Zr  0.37095257  0.63903496  0.17060234     2.84300
O442        O  0.37057572  0.64028785  0.19429033    -1.08400
O443        O  0.31323812  0.63337098  0.16219977    -1.09200
C444        C  0.31909940  0.56567480  0.14679969     1.06300
C445        C  0.45285693  0.71992150  0.18429141     1.06200
C446        C  0.37982703  0.70422967  0.14530731     1.09200
C447        C  0.39773047  0.58176815  0.18924818     1.07000
H448        H  0.38831741  0.71751400  0.17419731     0.32500
O449        O  0.36683980  0.69337734  0.17766213    -1.29400
H450        H  0.32056241  0.55933926  0.17573582     0.32200
O451        O  0.31781927  0.58106829  0.17871915    -1.31100
O452        O  0.34126168  0.71686972  0.21956976    -0.86800
O453        O  0.19172380  0.54600141  0.17755546    -0.88300
O454        O  0.34336300  0.75567067  0.17659617    -0.86900
O455        O  0.35772993  0.60818320  0.22220422    -0.87000
O456        O  0.27998231  0.51405463  0.19545482    -0.86700
O457        O  0.26630975  0.66085675  0.14964374    -0.86500
O458        O  0.22435050  0.66818332  0.19281555    -0.86800
O459        O  0.23284844  0.58693064  0.22007946    -0.86300
O460        O  0.25659324  0.70081536  0.17354680    -0.87400
O461        O  0.26806191  0.55541650  0.22067940    -0.86500
O462        O  0.37776066  0.75937052  0.19576822    -0.86900
O463        O  0.23459733  0.59377991  0.15089828    -0.86600
O464        O  0.24358198  0.50987369  0.17673109    -0.86300
O465        O  0.38990743  0.67527964  0.22142737    -0.86700
O466        O  0.27431426  0.67935495  0.21945944    -0.87000
O467        O  0.18964580  0.58004970  0.19591419    -0.88300
Zr468      Zr  0.36645394  0.69438927  0.20140504     2.83100
Zr469      Zr  0.25988270  0.57581223  0.17044786     2.83500
Zr470      Zr  0.30888819  0.68730846  0.16928984     2.84100
Zr471      Zr  0.31658284  0.58261784  0.20239650     2.83400
Zr472      Zr  0.25526628  0.63202874  0.20104499     2.84200
O473        O  0.25917177  0.57765294  0.19406080    -1.08900
O474        O  0.30883213  0.68921767  0.19292062    -1.08400
C475        C  0.30706365  0.70729093  0.22412522     1.06200
C476        C  0.17346475  0.55218457  0.18719150     1.08900
C477        C  0.36578235  0.77456425  0.18669920     1.06400
C478        C  0.38166406  0.64233987  0.22701973     1.06800
C479        C  0.25564397  0.49491259  0.18582135     1.06400
C480        C  0.24159118  0.62625232  0.14532327     1.05900
C481        C  0.22926016  0.69017579  0.18243352     1.06300
C482        C  0.24076604  0.56150831  0.22502538     1.05900
H483        H  0.23094687  0.62646859  0.17387190     0.32500
O484        O  0.25511183  0.62957596  0.17739019    -1.30000
H485        H  0.31176412  0.63736189  0.21939615     0.32600
O486        O  0.31252021  0.63683541  0.20962280    -1.31400
O487        O  0.99789091  0.02896446  0.55313571    -0.86800
O488        O  0.84415404  0.86307868  0.51047274    -0.87000
O489        O  0.88136285  0.98820078  0.52663210    -0.88700
O490        O  0.88811110  0.90285493  0.55329661    -0.87400
O491        O  0.92437744  0.87220394  0.55368598    -0.87000
O492        O  0.91583696  0.02263140  0.50802122    -0.88400
O493        O  0.84193835  0.89746153  0.52878615    -0.86900
O494        O  0.93083494  0.99459864  0.55269526    -0.86400
Zr495      Zr  0.90904466  0.94766338  0.53413434     2.84300
O496        O  0.91196919  0.89301555  0.52658220    -1.08400
O497        O  0.96427200  0.00453439  0.52659519    -1.09200
C498        C  0.96406817  0.02066775  0.55766206     1.06300
C499        C  0.82585846  0.86949476  0.52003352     1.06200
C500        C  0.88820151  0.01239214  0.51670849     1.09200
C501        C  0.89782615  0.87886385  0.55840370     1.07000
H502        H  0.88546307  0.94578093  0.50710228     0.32500
O503        O  0.90911920  0.94740249  0.51049754    -1.29400
H504        H  0.96608821  0.95007242  0.55199874     0.32200
O505        O  0.96609160  0.95000965  0.54221738    -1.31100
O506        O  0.93501784  0.87344202  0.48346521    -0.86800
O507        O  0.08909371  0.03596201  0.52725743    -0.88300
O508        O  0.92218014  0.98219312  0.48345533    -0.86900
O509        O  0.92993537  0.82814496  0.52715634    -0.87000
O510        O  0.01367143  0.91831361  0.55356058    -0.86700
O511        O  0.00221538  0.07238921  0.51107095    -0.86500
O512        O  0.04335851  0.99679242  0.48317767    -0.86800
O513        O  0.05343186  0.91545248  0.51008464    -0.86300
O514        O  0.00930456  0.02945024  0.48389980    -0.87400
O515        O  0.02116411  0.88131156  0.52906495    -0.86500
O516        O  0.88877874  0.91503898  0.48367217    -0.86900
O517        O  0.03712576  0.07354849  0.52979392    -0.86600
O518        O  0.04496261  0.98537834  0.55360360    -0.86300
O519        O  0.89662080  0.82610683  0.50793482    -0.86700
O520        O  0.00215760  0.90985741  0.48328798    -0.87000
O521        O  0.09036966  0.00453517  0.50796217    -0.88300
Zr522      Zr  0.91199588  0.89296917  0.50293797     2.83100
Zr523      Zr  0.02118757  0.00685149  0.53443451     2.83500
Zr524      Zr  0.96460545  0.00490949  0.50304245     2.84100
Zr525      Zr  0.96932830  0.89592489  0.53436182     2.83400
Zr526      Zr  0.02381428  0.95364514  0.50280333     2.84200
O527        O  0.02412922  0.95297150  0.52650393    -1.08900
O528        O  0.96651705  0.95040897  0.49515279    -1.08400
C529        C  0.96879924  0.88377534  0.47840438     1.06200
C530        C  0.10686597  0.03108126  0.51716285     1.08900
C531        C  0.89712143  0.94855372  0.47855607     1.06400
C532        C  0.90703561  0.80978809  0.51711507     1.06800
C533        C  0.03819603  0.95214851  0.55847670     1.06400
C534        C  0.02570955  0.09001137  0.52106606     1.05900
C535        C  0.03442921  0.02185248  0.47853952     1.06300
C536        C  0.04842426  0.89214666  0.52004973     1.05900
H537        H  0.04375711  0.03249268  0.50747382     0.32500
O538        O  0.02184963  0.00838473  0.51074326    -1.30000
H539        H  0.97158903  0.87422400  0.50732806     0.32600
O540        O  0.96960936  0.89608359  0.51065640    -1.31400
C541        C  0.96649814  0.13778707  0.90618625    -0.20200
C542        C  0.98749327  0.11767208  0.90686631     0.36000
C543        C  0.99129279  0.10285825  0.91931531    -0.26200
C544        C  0.97412734  0.10726253  0.93099636     0.02400
C545        C  0.95189403  0.12593992  0.93032342     0.27300
C546        C  0.94825248  0.14108808  0.91786549    -0.25300
N547        N  0.00451100  0.11199784  0.89489047    -0.82700
H548        H  0.00750144  0.08755418  0.91993331     0.13100
C549        C  0.97803571  0.09003802  0.94370258     0.02400
N550        N  0.93378892  0.12999384  0.94231571    -0.81300
H551        H  0.93213276  0.15648516  0.91735162     0.17900
C552        C  0.00868754  0.11284021  0.95265767    -0.26100
C553        C  0.01314134  0.09678435  0.96480718     0.35900
C554        C  0.98623023  0.05724795  0.96789375    -0.20100
C555        C  0.95646601  0.03440616  0.95860848    -0.25400
C556        C  0.95207300  0.05040614  0.94656415     0.27300
H557        H  0.02888511  0.14320741  0.95018590     0.13000
N558        N  0.04419509  0.12054543  0.97405112    -0.82700
H559        H  0.93624354  0.00384563  0.96081726     0.17900
N560        N  0.92152533  0.02655932  0.93715958    -0.81300
H561        H  0.06153881  0.14876254  0.97014420     0.33500
H562        H  0.03149857  0.12342026  0.98290753     0.38000
H563        H  0.90542745  0.99774057  0.94066983     0.33500
H564        H  0.90220214  0.03722775  0.93672900     0.30200
H565        H  0.91890261  0.14491063  0.94011560     0.33500
H566        H  0.91271345  0.10196039  0.94549661     0.30200
H567        H  0.98167618  0.09424078  0.88832305     0.38100
H568        H  0.01910967  0.09683493  0.89715702     0.33500
C569        C  0.75145783  0.22689197  0.85679410    -0.20200
C570        C  0.79105314  0.25103692  0.85302233     0.36000
C571        C  0.81809066  0.23902300  0.85599850    -0.26200
C572        C  0.80677454  0.20348890  0.86264757     0.02400
C573        C  0.76720787  0.17913410  0.86628356     0.27300
C574        C  0.74009546  0.19121878  0.86340777    -0.25300
N575        N  0.80413421  0.28837600  0.84666779    -0.82700
H576        H  0.84859661  0.25825489  0.85353118     0.13100
C577        C  0.83733797  0.19371113  0.86640954     0.02400
N578        N  0.75472815  0.14229767  0.87290945    -0.81300
H579        H  0.70985983  0.17261509  0.86634787     0.17900
C580        C  0.84073463  0.18489917  0.87994319    -0.26100
C581        C  0.87147524  0.17934565  0.88422669     0.35900
C582        C  0.89982121  0.18293822  0.87473759    -0.20100
C583        C  0.89580297  0.19087518  0.86113037    -0.25400
C584        C  0.86480416  0.19595524  0.85685205     0.27300
H585        H  0.82013215  0.18387858  0.88734443     0.13000
N586        N  0.87456711  0.17148434  0.89825455    -0.82700
H587        H  0.91699391  0.19313646  0.85374413     0.17900
N588        N  0.86124165  0.20363606  0.84284139    -0.81300
H589        H  0.85080161  0.16870029  0.90375837     0.33500
H590        H  0.89941485  0.19584270  0.90217607     0.38000
H591        H  0.88396442  0.20473540  0.83714565     0.33500
H592        H  0.83531232  0.18004393  0.83917087     0.30200
H593        H  0.72482920  0.12810297  0.87502135     0.33500
H594        H  0.75888088  0.12448385  0.86613939     0.30200
H595        H  0.80119130  0.30634625  0.85372597     0.38100
H596        H  0.83384727  0.30198302  0.84430101     0.33500
C597        C  0.28807538  0.52051877  0.73677419    -0.20200
C598        C  0.26149729  0.50999582  0.74763648     0.36000
C599        C  0.26212497  0.48597926  0.75809322    -0.26200
C600        C  0.28857550  0.47224412  0.75783586     0.02400
C601        C  0.31382477  0.48120604  0.74671136     0.27300
C602        C  0.31351987  0.50548033  0.73636423    -0.25300
N603        N  0.23487810  0.52457642  0.74822953    -0.82700
H604        H  0.24258841  0.47866611  0.76664912     0.13100
C605        C  0.29085065  0.45014507  0.76960404     0.02400
N606        N  0.33919570  0.46512606  0.74585785    -0.81300
H607        H  0.33325856  0.51265670  0.72787230     0.17900
C608        C  0.26497849  0.40972279  0.77054423    -0.26100
C609        C  0.26538826  0.38840900  0.78193005     0.35900
C610        C  0.29252291  0.40800746  0.79244951    -0.20100
C611        C  0.31906066  0.44819932  0.79128752    -0.25400
C612        C  0.31810023  0.46962390  0.78006363     0.27300
H613        H  0.24412773  0.39496690  0.76246617     0.13000
N614        N  0.23833247  0.34707462  0.78289703    -0.82700
H615        H  0.33940945  0.46323927  0.79946991     0.17900
N616        N  0.34338931  0.51136990  0.77954428    -0.81300
H617        H  0.22025859  0.33718899  0.77436549     0.33500
H618        H  0.25456659  0.33289247  0.78289391     0.38000
H619        H  0.36070156  0.52133606  0.78825258     0.33500
H620        H  0.36253254  0.51794738  0.77142475     0.30200
H621        H  0.35517255  0.47377635  0.73684699     0.33500
H622        H  0.35953638  0.47684964  0.75371735     0.30200
H623        H  0.25151064  0.55494646  0.74932951     0.38100
H624        H  0.21718352  0.51385276  0.75682020     0.33500
C625        C  0.35890306  0.37705148  0.82884087    -0.20200
C626        C  0.35731910  0.34814588  0.83776881     0.36000
C627        C  0.39223506  0.35068937  0.84231397    -0.26200
C628        C  0.42886915  0.38113987  0.83812667     0.02400
C629        C  0.43059784  0.41077485  0.82964446     0.27300
C630        C  0.39572351  0.40831802  0.82505309    -0.25300
N631        N  0.32041626  0.31535054  0.84177879    -0.82700
H632        H  0.39081226  0.32762282  0.84865938     0.13100
C633        C  0.46457796  0.37904338  0.84151994     0.02400
N634        N  0.46780863  0.44305847  0.82562274    -0.81300
H635        H  0.39736893  0.43093414  0.81840813     0.17900
C636        C  0.48754818  0.37815466  0.83092111    -0.26100
C637        C  0.51850774  0.37115759  0.83332453     0.35900
C638        C  0.52761333  0.36576498  0.84679014    -0.20100
C639        C  0.50502944  0.36748437  0.85743027    -0.25400
C640        C  0.47376344  0.37415341  0.85494691     0.27300
H641        H  0.47996823  0.38093552  0.82059381     0.13000
N642        N  0.53922894  0.36745949  0.82202751    -0.82700
H643        H  0.51157123  0.36325652  0.86773733     0.17900
N644        N  0.45105261  0.37561558  0.86599811    -0.81300
H645        H  0.52954838  0.37312099  0.81290191     0.33500
H646        H  0.53225191  0.33824304  0.82162398     0.38000
H647        H  0.46129460  0.37119587  0.87521563     0.33500
H648        H  0.45522440  0.40387691  0.86627949     0.30200
H649        H  0.46410859  0.46224624  0.81932788     0.33500
H650        H  0.48190729  0.45872222  0.83435499     0.30200
H651        H  0.30745783  0.29846320  0.83314903     0.38100
H652        H  0.32443928  0.29739935  0.84859064     0.33500
C653        C  0.03727380  0.21973330  0.86721251    -0.20200
C654        C  0.06736031  0.21037723  0.86791824     0.36000
C655        C  0.10296629  0.23437935  0.86131170    -0.26200
C656        C  0.10918391  0.26718130  0.85384690     0.02400
C657        C  0.07910104  0.27624301  0.85290882     0.27300
C658        C  0.04344353  0.25235201  0.85953987    -0.25300
N659        N  0.06155195  0.17617220  0.87507706    -0.82700
H660        H  0.12580894  0.22697380  0.86172447     0.13100
C661        C  0.14665866  0.29036805  0.84648756     0.02400
N662        N  0.08508059  0.30993758  0.84535604    -0.81300
H663        H  0.02072451  0.25988674  0.85896235     0.17900
C664        C  0.14591817  0.29413154  0.83240864    -0.26100
C665        C  0.18058129  0.31353626  0.82486184     0.35900
C666        C  0.21710614  0.32973875  0.83158502    -0.20100
C667        C  0.21767057  0.32607072  0.84574094    -0.25400
C668        C  0.18288382  0.30683358  0.85326010     0.27300
H669        H  0.11801273  0.28088633  0.82722982     0.13000
N670        N  0.17856772  0.31589473  0.81038613    -0.82700
H671        H  0.24538586  0.33872971  0.85101640     0.17900
N672        N  0.18414839  0.30409497  0.86774792    -0.81300
H673        H  0.14958974  0.30342887  0.80714110     0.33500
H674        H  0.18938266  0.29899460  0.80621599     0.38000
H675        H  0.21303484  0.31758648  0.87116846     0.33500
H676        H  0.17190732  0.31978022  0.87186894     0.30200
H677        H  0.06003141  0.31239427  0.84558539     0.33500
H678        H  0.10717851  0.33471950  0.85019528     0.30200
H679        H  0.03994668  0.15178232  0.86991561     0.38100
H680        H  0.08678476  0.17403973  0.87482921     0.33500
C681        C  0.21915025  0.62386437  0.13309478    -0.20200
C682        C  0.17797624  0.60118964  0.13293843     0.36000
C683        C  0.15754480  0.60177281  0.12139007    -0.26200
C684        C  0.17747021  0.62428894  0.11005221     0.02400
C685        C  0.21856549  0.64639837  0.11008781     0.27300
C686        C  0.23906979  0.64631516  0.12170140    -0.25300
N687        N  0.15701741  0.57928938  0.14471690    -0.82700
H688        H  0.12590925  0.58494130  0.12124824     0.13100
C689        C  0.15469050  0.62455021  0.09823698     0.02400
N690        N  0.23913985  0.66885198  0.09835618    -0.81300
H691        H  0.27068721  0.66366728  0.12187038     0.17900
C692        C  0.15039194  0.65708539  0.09591116    -0.26100
C693        C  0.12810169  0.65805497  0.08495909     0.35900
C694        C  0.10946878  0.62536792  0.07615643    -0.20100
C695        C  0.11415743  0.59283573  0.07865959    -0.25400
C696        C  0.13659055  0.59218628  0.08955274     0.27300
H697        H  0.16442779  0.68178578  0.10273779     0.13000
N698        N  0.12402074  0.69182937  0.08299601    -0.82700
H699        H  0.10035866  0.56758283  0.07208168     0.17900
N700        N  0.14099925  0.55872808  0.09189035    -0.81300
H701        H  0.13683337  0.71152067  0.09099585     0.33500
H702        H  0.14002092  0.70637896  0.07436495     0.38000
H703        H  0.12549216  0.53709059  0.08465906     0.33500
H704        H  0.17049961  0.56766544  0.09056631     0.30200
H705        H  0.26928986  0.68358889  0.10004788     0.33500
H706        H  0.23363195  0.64919267  0.09046428     0.30200
H707        H  0.16215855  0.55599782  0.14583262     0.38100
H708        H  0.12691589  0.56671561  0.14325913     0.33500
C709        C  0.05742450  0.68745942  0.04533648    -0.20200
C710        C  0.02224703  0.68446900  0.04070175     0.36000
C711        C  0.02215289  0.71835489  0.03644270    -0.26200
C712        C  0.05634093  0.75510070  0.03678575     0.02400
C713        C  0.09144390  0.75815853  0.04141838     0.27300
C714        C  0.09154767  0.72435512  0.04576954    -0.25300
N715        N  0.98658230  0.64729066  0.04066840    -0.82700
H716        H  0.99509744  0.71629983  0.03312077     0.13100
C717        C  0.05426717  0.79036007  0.03305817     0.02400
N718        N  0.12683859  0.79555733  0.04158387    -0.81300
H719        H  0.11857448  0.72670982  0.04928078     0.17900
C720        C  0.06252754  0.81870389  0.04294386    -0.26100
C721        C  0.05793723  0.85105223  0.04034112     0.35900
C722        C  0.04432708  0.85508345  0.02744284    -0.20100
C723        C  0.03742454  0.82710298  0.01739395    -0.25400
C724        C  0.04226455  0.79485892  0.02007993     0.27300
H725        H  0.07165695  0.81494933  0.05291419     0.13000
N726        N  0.06552775  0.87866994  0.05099909    -0.82700
H727        H  0.02727574  0.82977149  0.00747460     0.17900
N728        N  0.03445306  0.76628789  0.00976773    -0.81300
H729        H  0.07203604  0.86950320  0.06007566     0.33500
H730        H  0.09069591  0.90480156  0.04834593     0.38000
H731        H  0.02558314  0.77363492  0.00079764     0.33500
H732        H  0.06071661  0.76718105  0.00764392     0.30200
H733        H  0.15008998  0.79282442  0.04528726     0.33500
H734        H  0.13364705  0.80514493  0.03156092     0.30200
H735        H  0.97976550  0.63808213  0.05072684     0.38100
H736        H  0.96346578  0.65018734  0.03692043     0.33500
C737        C  0.86431000  0.22764375  0.99886170    -0.20200
C738        C  0.86947256  0.22074364  0.01255791     0.36000
C739        C  0.87362555  0.18852358  0.01590244    -0.26200
C740        C  0.87350975  0.16346825  0.00588273     0.02400
C741        C  0.86712871  0.16950728  0.99226458     0.27300
C742        C  0.86190758  0.20113853  0.98893209    -0.25300
N743        N  0.87080282  0.24654510  0.02301897    -0.82700
H744        H  0.87803234  0.18342595  0.02637320     0.13100
C745        C  0.88336085  0.13316934  0.00973119     0.02400
N746        N  0.86756696  0.14450583  0.98182578    -0.81300
H747        H  0.85792184  0.20621593  0.97842021     0.17900
C748        C  0.85757510  0.09370171  0.00664288    -0.26100
C749        C  0.86719887  0.06481699  0.00971564     0.35900
C750        C  0.90302637  0.07570947  0.01628743    -0.20100
C751        C  0.92815359  0.11505432  0.01968161    -0.25400
C752        C  0.91914909  0.14396084  0.01619831     0.27300
H753        H  0.83008933  0.08554282  0.00169052     0.13000
N754        N  0.84096834  0.02469314  0.00608717    -0.82700
H755        H  0.95603247  0.12367581  0.02441581     0.17900
N756        N  0.94687620  0.18449156  0.01874412    -0.81300
H757        H  0.81624029  0.02177927  0.00117413     0.33500
H758        H  0.83123053  0.00845051  0.01504272     0.38000
H759        H  0.97181996  0.18752410  0.02352418     0.33500
H760        H  0.95595121  0.19855298  0.00936936     0.30200
H761        H  0.86244949  0.15291981  0.97235109     0.33500
H762        H  0.89570574  0.14847330  0.98148901     0.30200
H763        H  0.84332977  0.24415467  0.02342556     0.38100
H764        H  0.87551277  0.23770530  0.03247877     0.33500
C765        C  0.82263177  0.29472731  0.96650418    -0.20200
C766        C  0.80623744  0.31910400  0.96501828     0.36000
C767        C  0.78878188  0.31954023  0.95269987    -0.26200
C768        C  0.78633482  0.29534373  0.94203003     0.02400
C769        C  0.80131459  0.27000851  0.94356869     0.27300
C770        C  0.81956991  0.27008543  0.95578687    -0.25300
N771        N  0.80634146  0.34249671  0.97610916    -0.82700
H772        H  0.77642614  0.33834228  0.95145626     0.13100
C773        C  0.76671088  0.29586209  0.92941432     0.02400
N774        N  0.79809165  0.24456446  0.93267545    -0.81300
H775        H  0.83184405  0.25118297  0.95687957     0.17900
C776        C  0.78914163  0.31941317  0.91861229    -0.26100
C777        C  0.77134417  0.32018335  0.90638951     0.35900
C778        C  0.73044574  0.29663331  0.90502359    -0.20100
C779        C  0.70809432  0.27316224  0.91589677    -0.25400
C780        C  0.72585766  0.27294606  0.92817561     0.27300
H781        H  0.82055895  0.33709858  0.91974004     0.13000
N782        N  0.79457733  0.34430485  0.89532289    -0.82700
H783        H  0.67662722  0.25558123  0.91488071     0.17900
N784        N  0.70267646  0.25014194  0.93947226    -0.81300
H785        H  0.82409295  0.36003644  0.89802873     0.33500
H786        H  0.79220936  0.32576494  0.88740646     0.38000
H787        H  0.67299587  0.23544262  0.93697098     0.33500
H788        H  0.70995990  0.22865980  0.94150900     0.30200
H789        H  0.81087189  0.22796924  0.93538762     0.33500
H790        H  0.76840045  0.22474199  0.93113529     0.30200
H791        H  0.78890508  0.32338539  0.98375956     0.38100
H792        H  0.79341951  0.35889391  0.97330230     0.33500
C793        C  0.90717648  0.36756040  0.00500797    -0.20200
C794        C  0.90129896  0.39973852  0.00305267     0.36000
C795        C  0.92542106  0.43508694  0.00974405    -0.26200
C796        C  0.95509124  0.43931090  0.01850155     0.02400
C797        C  0.96062761  0.40720021  0.02075995     0.27300
C798        C  0.93656338  0.37167328  0.01403257    -0.25300
N799        N  0.87023156  0.39636394  0.99459796    -0.82700
H800        H  0.92041924  0.45939625  0.00837001     0.13100
C801        C  0.97865430  0.47715923  0.02564117     0.02400
N802        N  0.99091485  0.41093184  0.02974358    -0.81300
H803        H  0.94138676  0.34735558  0.01567267     0.17900
C804        C  0.98009659  0.47747442  0.03981953    -0.26100
C805        C  0.99995232  0.51275138  0.04700604     0.35900
C806        C  0.01836193  0.54857652  0.03985187    -0.20100
C807        C  0.01666147  0.54835267  0.02566971    -0.25400
C808        C  0.99752811  0.51296679  0.01847046     0.27300
H809        H  0.96492308  0.45006545  0.04531938     0.13000
N810        N  0.00077084  0.51234062  0.06155330    -0.82700
H811        H  0.03118771  0.57583622  0.02018829     0.17900
N812        N  0.99745308  0.51316560  0.00391772    -0.81300
H813        H  0.98613730  0.48363836  0.06523245     0.33500
H814        H  0.98533018  0.52560280  0.06501144     0.38000
H815        H  0.01257288  0.54182238  0.00020642     0.33500
H816        H  0.01279465  0.49956359  0.00069625     0.30200
H817        H  0.99096957  0.38458180  0.03037329     0.33500
H818        H  0.01770497  0.43152183  0.02553233     0.30200
H819        H  0.84403808  0.37719245  0.99948002     0.38100
H820        H  0.87107837  0.42313081  0.99379088     0.33500
C821        C  0.03703934  0.72424744  0.16337865    -0.20200
C822        C  0.07507055  0.75444995  0.15978064     0.36000
C823        C  0.10752579  0.75077653  0.16319209    -0.26200
C824        C  0.10299073  0.71805137  0.17028210     0.02400
C825        C  0.06537332  0.68819390  0.17403845     0.27300
C826        C  0.03285561  0.69168414  0.17062731    -0.25300
N827        N  0.08085342  0.78898794  0.15287141    -0.82700
H828        H  0.13663064  0.77369839  0.16041184     0.13100
C829        C  0.13773515  0.71470676  0.17341702     0.02400
N830        N  0.06035433  0.65410975  0.18109196    -0.81300
H831        H  0.00399415  0.66831313  0.17340294     0.17900
C832        C  0.14715018  0.71240925  0.18696220    -0.26100
C833        C  0.17795265  0.70594467  0.19029062     0.35900
C834        C  0.19974633  0.70183038  0.17980471    -0.20100
C835        C  0.19116870  0.70578113  0.16626623    -0.25400
C836        C  0.16021692  0.71184403  0.16296149     0.27300
H837        H  0.12994570  0.71507670  0.19494149     0.13000
N838        N  0.18695303  0.70332121  0.20422279    -0.82700
H839        H  0.20748603  0.70226237  0.15815659     0.17900
N840        N  0.15069194  0.71379436  0.14903036    -0.81300
H841        H  0.16798599  0.70677494  0.21064160     0.33500
H842        H  0.21500060  0.72675868  0.20614870     0.38000
H843        H  0.17017184  0.71126220  0.14258208     0.33500
H844        H  0.12309883  0.68958009  0.14714252     0.30200
H845        H  0.03084122  0.63487281  0.18316749     0.33500
H846        H  0.06936790  0.63933963  0.17461565     0.30200
H847        H  0.07250263  0.80403970  0.15947464     0.38100
H848        H  0.11042379  0.80778257  0.15073638     0.33500
C849        C  0.96951335  0.77211489  0.13338227    -0.20200
C850        C  0.00216223  0.79146009  0.12465228     0.36000
C851        C  0.00015380  0.81140267  0.11322581    -0.26200
C852        C  0.96647333  0.81307110  0.11028910     0.02400
C853        C  0.93403833  0.79459969  0.11898846     0.27300
C854        C  0.93578118  0.77416273  0.13038740    -0.25300
N855        N  0.03746842  0.79091634  0.12717893    -0.82700
H856        H  0.02514940  0.82561109  0.10652864     0.13100
C857        C  0.96599420  0.83458671  0.09807092     0.02400
N858        N  0.89964135  0.79697480  0.11626246    -0.81300
H859        H  0.91056691  0.75989968  0.13696438     0.17900
C860        C  0.93888675  0.81449916  0.08774711    -0.26100
C861        C  0.93875924  0.83373215  0.07577310     0.35900
C862        C  0.96712048  0.87372183  0.07402552    -0.20100
C863        C  0.99400323  0.89370134  0.08443620    -0.25400
C864        C  0.99335565  0.87469199  0.09651490     0.27300
H865        H  0.91800585  0.78361548  0.08900993     0.13000
N866        N  0.91099204  0.81239295  0.06524782    -0.82700
H867        H  0.01526512  0.92450041  0.08321835     0.17900
N868        N  0.02022885  0.89592808  0.10726439    -0.81300
H869        H  0.89480122  0.78263862  0.06767589     0.33500
H870        H  0.89090659  0.82213061  0.06494993     0.38000
H871        H  0.03847674  0.92519592  0.10451536     0.33500
H872        H  0.00382910  0.89590681  0.11553710     0.30200
H873        H  0.87832760  0.78177846  0.12362502     0.33500
H874        H  0.90737819  0.82635852  0.11703536     0.30200
H875        H  0.06030851  0.81983888  0.12807759     0.38100
H876        H  0.04314443  0.77850035  0.11880036     0.33500
C877        C  0.63356297  0.47628152  0.23941877    -0.20200
C878        C  0.65347751  0.45523789  0.24106749     0.36000
C879        C  0.65177395  0.43730976  0.25357138    -0.26200
C880        C  0.63044223  0.43966500  0.26443501     0.02400
C881        C  0.60976239  0.45975167  0.26276391     0.27300
C882        C  0.61138917  0.47775028  0.25024809    -0.25300
N883        N  0.67502951  0.45177274  0.23000782    -0.82700
H884        H  0.66719948  0.42139514  0.25488715     0.13100
C885        C  0.62998746  0.42058394  0.27745969     0.02400
N886        N  0.58775670  0.46228656  0.27385034    -0.81300
H887        H  0.59608348  0.49381327  0.24905568     0.17900
C888        C  0.65667098  0.44258321  0.28767051    -0.26100
C889        C  0.65875963  0.42495915  0.29975399     0.35900
C890        C  0.63341688  0.38428519  0.30179311    -0.20100
C891        C  0.60603666  0.36260440  0.29164285    -0.25400
C892        C  0.60424463  0.38029235  0.27948061     0.27300
H893        H  0.67635344  0.47363915  0.28616022     0.13000
N894        N  0.68612820  0.44932786  0.30987079    -0.82700
H895        H  0.58636737  0.33152857  0.29311244     0.17900
N896        N  0.57683436  0.35744726  0.26906857    -0.81300
H897        H  0.70655909  0.44040848  0.31141341     0.33500
H898        H  0.67102235  0.44596060  0.31889633     0.38000
H899        H  0.56026430  0.32815816  0.27204951     0.33500
H900        H  0.55729934  0.36769945  0.26792270     0.30200
H901        H  0.57459397  0.47845395  0.27103678     0.33500
H902        H  0.56510324  0.43397654  0.27601226     0.30200
H903        H  0.65501268  0.43581609  0.22236717     0.38100
H904        H  0.68811750  0.43560612  0.23291394     0.33500
C905        C  0.57799397  0.52791163  0.20554743    -0.20200
C906        C  0.53830095  0.49967834  0.20773964     0.36000
C907        C  0.50906117  0.50756769  0.20347592    -0.26200
C908        C  0.51857450  0.54283968  0.19702065     0.02400
C909        C  0.55799629  0.57067798  0.19448956     0.27300
C910        C  0.58725634  0.56273676  0.19864936    -0.25300
N911        N  0.52774847  0.46319505  0.21429205    -0.82700
H912        H  0.47864626  0.48650864  0.20547279     0.13100
C913        C  0.48728047  0.55214436  0.19465112     0.02400
N914        N  0.56826697  0.60771402  0.18840320    -0.81300
H915        H  0.61757882  0.58459157  0.19693823     0.17900
C916        C  0.47535996  0.56605624  0.20557793    -0.26100
C917        C  0.44545243  0.57494134  0.20411125     0.35900
C918        C  0.42736322  0.57010611  0.19136579    -0.20100
C919        C  0.43917439  0.55595667  0.18042309    -0.25400
C920        C  0.46858380  0.54622784  0.18200108     0.27300
H921        H  0.48963843  0.57009480  0.21529733     0.13000
N922        N  0.43394612  0.58957267  0.21543942    -0.82700
H923        H  0.42502353  0.55201375  0.17068562     0.17900
N924        N  0.47848970  0.52915752  0.17100183    -0.81300
H925        H  0.44980630  0.59094382  0.22410139     0.33500
H926        H  0.44123781  0.61830743  0.21319434     0.38000
H927        H  0.46108088  0.52562813  0.16254939     0.33500
H928        H  0.50723799  0.54871366  0.16813581     0.30200
H929        H  0.59861049  0.62547217  0.18771867     0.33500
H930        H  0.55776587  0.60254335  0.17848109     0.30200
H931        H  0.53645077  0.44784859  0.20797218     0.38100
H932        H  0.49741846  0.44598804  0.21526181     0.33500
C933        C  0.71404336  0.55823184  0.20153158    -0.20200
C934        C  0.71680609  0.56413219  0.18735252     0.36000
C935        C  0.75376352  0.58651322  0.18135227    -0.26200
C936        C  0.78780105  0.60289804  0.18920489     0.02400
C937        C  0.78530723  0.59639148  0.20326856     0.27300
C938        C  0.74842264  0.57394565  0.20929835    -0.25300
N939        N  0.68220315  0.54733551  0.17909784    -0.82700
H940        H  0.75610948  0.59163186  0.17052377     0.13100
C941        C  0.82579467  0.62847943  0.18263154     0.02400
N942        N  0.82018717  0.61349652  0.21138246    -0.81300
H943        H  0.74647798  0.56964536  0.22016527     0.17900
C944        C  0.83974476  0.66876447  0.18192767    -0.26100
C945        C  0.87539557  0.69414470  0.17554348     0.35900
C946        C  0.89754956  0.67877588  0.16996854    -0.20100
C947        C  0.88367114  0.63847394  0.17077030    -0.25400
C948        C  0.84761539  0.61300670  0.17690407     0.27300
H949        H  0.82259224  0.68030420  0.18631156     0.13000
N950        N  0.88931077  0.73538950  0.17476758    -0.82700
H951        H  0.90059569  0.62679019  0.16630216     0.17900
N952        N  0.83262418  0.57151773  0.17707328    -0.81300
H953        H  0.86940320  0.74184698  0.17928549     0.33500
H954        H  0.91505539  0.74978793  0.18043933     0.38000
H955        H  0.85186597  0.56484836  0.17215726     0.33500
H956        H  0.83129581  0.56288729  0.18715703     0.30200
H957        H  0.81326494  0.60653546  0.22159629     0.33500
H958        H  0.83662116  0.60076886  0.20849372     0.30200
H959        H  0.66920610  0.51691935  0.17973895     0.38100
H960        H  0.68938193  0.55475789  0.16892320     0.33500
C961        C  0.30915016  0.81560826  0.57367641    -0.20200
C962        C  0.33581421  0.80180234  0.57473061     0.36000
C963        C  0.33788628  0.78421585  0.58681780    -0.26200
C964        C  0.31357818  0.77964568  0.59772754     0.02400
C965        C  0.28657044  0.79271342  0.59669948     0.27300
C966        C  0.28463898  0.81067157  0.58466211    -0.25300
N967        N  0.36019890  0.80504162  0.56347488    -0.82700
H968        H  0.35812122  0.77346884  0.58769868     0.13100
C969        C  0.31564563  0.75957648  0.61001311     0.02400
N970        N  0.26167194  0.78811393  0.60795135    -0.81300
H971        H  0.26437320  0.82139108  0.58393637     0.17900
C972        C  0.34280336  0.78167350  0.62008481    -0.26100
C973        C  0.34459346  0.76453204  0.63232034     0.35900
C974        C  0.31968717  0.72362677  0.63414346    -0.20100
C975        C  0.29306334  0.70167149  0.62387682    -0.25400
C976        C  0.29036365  0.71904790  0.61193750     0.27300
H977        H  0.36183462  0.81287185  0.61861465     0.13000
N978        N  0.37060311  0.78987881  0.64266683    -0.82700
H979        H  0.27371740  0.67044070  0.62518842     0.17900
N980        N  0.26173566  0.69455879  0.60206267    -0.81300
H981        H  0.36265888  0.81081125  0.64478245     0.33500
H982        H  0.36716682  0.77516665  0.65176800     0.38000
H983        H  0.23415073  0.68388825  0.60639868     0.33500
H984        H  0.26247753  0.71012654  0.59342081     0.30200
H985        H  0.24398024  0.79996155  0.60564921     0.33500
H986        H  0.24288644  0.75815193  0.60947331     0.30200
H987        H  0.34189451  0.78754225  0.55568199     0.38100
H988        H  0.37825301  0.79375551  0.56598565     0.33500
C989        C  0.23595291  0.85197935  0.54197350    -0.20200
C990        C  0.21301309  0.85859461  0.55132108     0.36000
C991        C  0.18042268  0.86050066  0.54668174    -0.26200
C992        C  0.16895080  0.85412730  0.53301828     0.02400
C993        C  0.19086256  0.84555450  0.52380340     0.27300
C994        C  0.22460709  0.84551492  0.52832311    -0.25300
N995        N  0.22388548  0.86528303  0.56537262    -0.82700
H996        H  0.16426807  0.86778709  0.55376460     0.13100
C997        C  0.13557243  0.85910933  0.52851206     0.02400
N998        N  0.17874195  0.83683411  0.50991441    -0.81300
H999        H  0.24197000  0.83998866  0.52118520     0.17900
C1000       C  0.14074601  0.88408057  0.51760093    -0.26100
C1001       C  0.11182696  0.89315913  0.51393532     0.35900
C1002       C  0.07710553  0.87813741  0.52174866    -0.20100
C1003       C  0.07131019  0.85157525  0.53225665    -0.25400
C1004       C  0.09978123  0.84161718  0.53560052     0.27300
H1005       H  0.16813161  0.89764738  0.51212672     0.13000
N1006       N  0.11842450  0.91848126  0.50254865    -0.82700
H1007       H  0.04468842  0.83897626  0.53815102     0.17900
N1008       N  0.09266938  0.81417323  0.54632513    -0.81300
H1009       H  0.14603001  0.92824618  0.49835826     0.33500
H1010       H  0.09820566  0.90170934  0.49506637     0.38000
H1011       H  0.06517516  0.80425303  0.55063108     0.33500
H1012       H  0.09212727  0.78980109  0.54203199     0.30200
H1013       H  0.19799547  0.83123378  0.50448277     0.33500
H1014       H  0.15163551  0.81099303  0.50979070     0.30200
H1015       H  0.21862204  0.83871457  0.56950248     0.38100
H1016       H  0.20575916  0.87275394  0.57065172     0.33500
C1017       C  0.63987247  0.10702785  0.46780678    -0.20200
C1018       C  0.65554053  0.10320582  0.45546250     0.36000
C1019       C  0.65384419  0.12315165  0.44394419    -0.26200
C1020       C  0.63833334  0.14807923  0.44455524     0.02400
C1021       C  0.62381812  0.15293421  0.45699010     0.27300
C1022       C  0.62406154  0.13175436  0.46842427    -0.25300
N1023       N  0.67152900  0.07778111  0.45446519    -0.82700
H1024       H  0.66447134  0.11900727  0.43436183     0.13100
C1025       C  0.63688340  0.16808722  0.43197303     0.02400
N1026       N  0.60906979  0.17941108  0.45795906    -0.81300
H1027       H  0.61221544  0.13482413  0.47790961     0.17900
C1028       C  0.60114998  0.16365384  0.42764166    -0.26100
C1029       C  0.59836085  0.18143208  0.41566856     0.35900
C1030       C  0.63201057  0.20325288  0.40753294    -0.20100
C1031       C  0.66766232  0.20703746  0.41186978    -0.25400
C1032       C  0.67056811  0.19030670  0.42404558     0.27300
H1033       H  0.57522223  0.14623632  0.43367874     0.13000
N1034       N  0.56159994  0.17778908  0.41195148    -0.82700
H1035       H  0.69374349  0.22353470  0.40581937     0.17900
N1036       N  0.70773385  0.19613965  0.42846876    -0.81300
H1037       H  0.53975486  0.15995023  0.41882338     0.33500
H1038       H  0.56489086  0.20559155  0.41279010     0.38000
H1039       H  0.72958050  0.21293501  0.42144740     0.33500
H1040       H  0.71511796  0.21231954  0.43742774     0.30200
H1041       H  0.59946884  0.17954827  0.46779213     0.33500
H1042       H  0.63233130  0.20762006  0.45607568     0.30200
H1043       H  0.69805569  0.09105315  0.45971037     0.38100
H1044       H  0.67845253  0.07562767  0.44442188     0.33500
C1045       C  0.86106042  0.02787837  0.51457286    -0.20200
C1046       C  0.85798232  0.04302918  0.50182689     0.36000
C1047       C  0.82754548  0.05078586  0.49957565    -0.26200
C1048       C  0.80061788  0.04497508  0.50973107     0.02400
C1049       C  0.80520845  0.03278661  0.52269532     0.27300
C1050       C  0.83512392  0.02407191  0.52495701    -0.25300
N1051       N  0.88443175  0.04886594  0.49093969    -0.82700
H1052       H  0.82398837  0.06022262  0.48963170     0.13100
C1053       C  0.76613656  0.04877839  0.50621823     0.02400
N1054       N  0.77897375  0.02861937  0.53342758    -0.81300
H1055       H  0.83757514  0.01339248  0.53480703     0.17900
C1056       C  0.72855701  0.01626670  0.50790667    -0.26100
C1057       C  0.69511925  0.01732703  0.50376789     0.35900
C1058       C  0.69933663  0.05192507  0.49794186    -0.20100
C1059       C  0.73701526  0.08425905  0.49609783    -0.25400
C1060       C  0.77040038  0.08315276  0.50023711     0.27300
H1061       H  0.72540014  0.98952355  0.51213842     0.13000
N1062       N  0.65710488  0.98308301  0.50513261    -0.82700
H1063       H  0.74044108  0.11086676  0.49164307     0.17900
N1064       N  0.80859983  0.11685594  0.49846511    -0.81300
H1065       H  0.65915226  0.96024675  0.50964993     0.33500
H1066       H  0.64603687  0.97370850  0.49538747     0.38000
H1067       H  0.80670397  0.13962784  0.49382147     0.33500
H1068       H  0.82047300  0.12675148  0.50808539     0.30200
H1069       H  0.78613783  0.01927534  0.54232928     0.33500
H1070       H  0.78301065  0.05635717  0.53540567     0.30200
H1071       H  0.91162986  0.07270642  0.49353852     0.38100
H1072       H  0.87596242  0.05688998  0.48202314     0.33500
C1073       C  0.56346769  0.02027977  0.50521320    -0.20200
C1074       C  0.54280085  0.03883737  0.50942241     0.36000
C1075       C  0.50627693  0.01658759  0.51575446    -0.26200
C1076       C  0.49032245  0.97637587  0.51792834     0.02400
C1077       C  0.51131233  0.95800455  0.51402286     0.27300
C1078       C  0.54783922  0.98021607  0.50774490    -0.25300
N1079       N  0.55917800  0.08017439  0.50737934    -0.82700
H1080       H  0.49011645  0.03051848  0.51897970     0.13100
C1081       C  0.45164391  0.95358358  0.52441100     0.02400
N1082       N  0.49502855  0.91673544  0.51622688    -0.81300
H1083       H  0.56376391  0.96604170  0.50451080     0.17900
C1084       C  0.41811850  0.93415261  0.51630296    -0.26100
C1085       C  0.38110952  0.90998111  0.52211733     0.35900
C1086       C  0.37790446  0.90531033  0.53631604    -0.20100
C1087       C  0.41160400  0.92549327  0.54436911    -0.25400
C1088       C  0.44839024  0.94974116  0.53856698     0.27300
H1089       H  0.42103529  0.93732035  0.50540320     0.13000
N1090       N  0.34716060  0.88946563  0.51366001    -0.82700
H1091       H  0.40922415  0.92236508  0.55527928     0.17900
N1092       N  0.48243943  0.97060018  0.54697225    -0.81300
H1093       H  0.35459327  0.89638927  0.50347394     0.33500
H1094       H  0.33694924  0.85954132  0.51469814     0.38000
H1095       H  0.47490461  0.96510340  0.55720368     0.33500
H1096       H  0.50104405  0.95966229  0.54500686     0.30200
H1097       H  0.51383583  0.90759615  0.51254708     0.33500
H1098       H  0.49301781  0.91185694  0.52667185     0.30200
H1099       H  0.58472345  0.09453637  0.51315902     0.38100
H1100       H  0.54031846  0.08923679  0.51106985     0.33500
C1101       C  0.24455136  0.74552208  0.67992462    -0.20200
C1102       C  0.24644817  0.75869019  0.66644842     0.36000
C1103       C  0.23856836  0.78876239  0.66379780    -0.26200
C1104       C  0.22958221  0.80641583  0.67428576     0.02400
C1105       C  0.22720839  0.79331306  0.68771157     0.27300
C1106       C  0.23485350  0.76286968  0.69043368    -0.25300
N1107       N  0.25809681  0.74272701  0.65557316    -0.82700
H1108       H  0.24073649  0.79949699  0.65354129     0.13100
C1109       C  0.22581664  0.84061889  0.67094530     0.02400
N1110       N  0.21702186  0.81091421  0.69844969    -0.81300
H1111       H  0.23338606  0.75274683  0.70073682     0.17900
C1112       C  0.18932914  0.83520612  0.66719075    -0.26100
C1113       C  0.18560876  0.86692531  0.66270356     0.35900
C1114       C  0.21919190  0.90452422  0.66197795    -0.20100
C1115       C  0.25560779  0.90973023  0.66586857    -0.25400
C1116       C  0.25930950  0.87803098  0.67022741     0.27300
H1117       H  0.16388914  0.80610692  0.66760850     0.13000
N1118       N  0.14797379  0.86117319  0.65900399    -0.82700
H1119       H  0.28143695  0.93851266  0.66520020     0.17900
N1120       N  0.29705271  0.88331448  0.67350060    -0.81300
H1121       H  0.12644741  0.83174127  0.66003768     0.33500
H1122       H  0.14106098  0.87677167  0.66588486     0.38000
H1123       H  0.31884214  0.91251462  0.67213847     0.33500
H1124       H  0.29706169  0.87711901  0.68378977     0.30200
H1125       H  0.21604361  0.79754022  0.70770056     0.33500
H1126       H  0.23930893  0.84008458  0.69927001     0.30200
H1127       H  0.28724177  0.75080664  0.65728723     0.38100
H1128       H  0.25743312  0.75520388  0.64630067     0.33500
C1129       C  0.17089416  0.96617597  0.62976314    -0.20200
C1130       C  0.18027408  0.99931948  0.62162648     0.36000
C1131       C  0.15726828  0.99524065  0.61023563    -0.26200
C1132       C  0.12506132  0.95898176  0.60668694     0.02400
C1133       C  0.11596469  0.92574711  0.61463714     0.27300
C1134       C  0.13900841  0.92968569  0.62603834    -0.25300
N1135       N  0.21357131  0.03688534  0.62470477    -0.82700
H1136       H  0.16492041  0.02052335  0.60391450     0.13100
C1137       C  0.10162320  0.95653918  0.59452618     0.02400
N1138       N  0.08318584  0.88820828  0.61118446    -0.81300
H1139       H  0.13162886  0.90410130  0.63215001     0.17900
C1140       C  0.09503712  0.92917625  0.58434972    -0.26100
C1141       C  0.07401675  0.92690957  0.57260347     0.35900
C1142       C  0.05993035  0.95300259  0.57078570    -0.20100
C1143       C  0.06665703  0.98048496  0.58089915    -0.25400
C1144       C  0.08686111  0.98220513  0.59282083     0.27300
H1145       H  0.10679927  0.90982343  0.58541640     0.13000
N1146       N  0.06811746  0.89888595  0.56236756    -0.82700
H1147       H  0.05543760  0.00023744  0.57960127     0.17900
N1148       N  0.09219908  0.00972823  0.60324798    -0.81300
H1149       H  0.09547306  0.90404833  0.55920685     0.33500
H1150       H  0.05321140  0.87100347  0.56672699     0.38000
H1151       H  0.07980205  0.02656578  0.60038577     0.33500
H1152       H  0.07694981  0.99373451  0.61179538     0.30200
H1153       H  0.08068833  0.86673065  0.61796910     0.33500
H1154       H  0.05789952  0.88999859  0.61224129     0.30200
H1155       H  0.23856460  0.03477399  0.62325550     0.38100
H1156       H  0.21564440  0.05821109  0.61793256     0.33500
C1157       C  0.36741457  0.51061225  0.69076481    -0.20200
C1158       C  0.40487961  0.51965385  0.69522049     0.36000
C1159       C  0.41279724  0.48921542  0.69739373    -0.26200
C1160       C  0.38388393  0.45010096  0.69532847     0.02400
C1161       C  0.34624116  0.44093308  0.69108931     0.27300
C1162       C  0.33867506  0.47139456  0.68856356    -0.25300
N1163       N  0.43467952  0.55958571  0.69744871    -0.82700
H1164       H  0.44141980  0.49587091  0.70091230     0.13100
C1165       C  0.39245398  0.41897100  0.69891108     0.02400
N1166       N  0.31523511  0.40083689  0.69024698    -0.81300
H1167       H  0.30959757  0.46437721  0.68546461     0.17900
C1168       C  0.39227936  0.40969029  0.71259582    -0.26100
C1169       C  0.39987616  0.38019186  0.71658580     0.35900
C1170       C  0.40709581  0.35897496  0.70670785    -0.20100
C1171       C  0.40769320  0.36861451  0.69297776    -0.25400
C1172       C  0.40126207  0.39908836  0.68898202     0.27300
H1173       H  0.38605364  0.42539599  0.72023173     0.13000
N1174       N  0.39920508  0.37124899  0.73066999    -0.82700
H1175       H  0.41404524  0.35289909  0.68539337     0.17900
N1176       N  0.40541448  0.41104869  0.67503258    -0.81300
H1177       H  0.37171840  0.36363558  0.73451333     0.33500
H1178       H  0.41999109  0.39664390  0.73560615     0.38000
H1179       H  0.41330712  0.39426337  0.66912648     0.33500
H1180       H  0.37828850  0.40544149  0.67145349     0.30200
H1181       H  0.28893048  0.39929029  0.68759391     0.33500
H1182       H  0.32167425  0.38733228  0.68243703     0.30200
H1183       H  0.44128026  0.57361582  0.68803868     0.38100
H1184       H  0.46030208  0.56110802  0.70097546     0.33500
C1185       C  0.46454036  0.30282941  0.73750290    -0.20200
C1186       C  0.47211558  0.32984582  0.74803641     0.36000
C1187       C  0.49280400  0.32969476  0.75953939    -0.26200
C1188       C  0.50646921  0.30335014  0.76071265     0.02400
C1189       C  0.50038902  0.27738065  0.75005542     0.27300
C1190       C  0.47914390  0.27706907  0.73864154    -0.25300
N1191       N  0.45803512  0.35675905  0.74734844    -0.82700
H1192       H  0.49739086  0.34964039  0.76775929     0.13100
C1193       C  0.52512036  0.30169826  0.77347013     0.02400
N1194       N  0.51586533  0.25146998  0.75089977    -0.81300
H1195       H  0.47417965  0.25663583  0.73056397     0.17900
C1196       C  0.50791238  0.26674067  0.78087186    -0.26100
C1197       C  0.52355141  0.26383779  0.79319137     0.35900
C1198       C  0.55722518  0.29711529  0.79850399    -0.20100
C1199       C  0.57457598  0.33207293  0.79089179    -0.25400
C1200       C  0.55905341  0.33458025  0.77840262     0.27300
H1201       H  0.48168763  0.24143400  0.77707799     0.13000
N1202       N  0.50382311  0.22689213  0.80005540    -0.82700
H1203       H  0.60067880  0.35762638  0.79459718     0.17900
N1204       N  0.57770962  0.37022790  0.77065366    -0.81300
H1205       H  0.52256346  0.21561807  0.80085990     0.33500
H1206       H  0.49550134  0.23086057  0.80967597     0.38000
H1207       H  0.60239778  0.39174182  0.77571502     0.33500
H1208       H  0.58762622  0.36444068  0.76164708     0.30200
H1209       H  0.50875129  0.23412451  0.74222674     0.33500
H1210       H  0.54632140  0.26875352  0.75111777     0.30200
H1211       H  0.48200370  0.38511894  0.74809234     0.38100
H1212       H  0.43997401  0.35183838  0.75569953     0.33500
C1213       C  0.26535578  0.04446913  0.66550647    -0.20200
C1214       C  0.25378421  0.07264790  0.66702061     0.36000
C1215       C  0.27939987  0.10854116  0.67319292    -0.26200
C1216       C  0.31611349  0.11673762  0.67795161     0.02400
C1217       C  0.32773112  0.08866768  0.67649043     0.27300
C1218       C  0.30211193  0.05268444  0.67034847    -0.25300
N1219       N  0.21578104  0.06440822  0.66261618    -0.82700
H1220       H  0.27042478  0.13003309  0.67456548     0.13100
C1221       C  0.34111236  0.15430006  0.68496840     0.02400
N1222       N  0.36552655  0.09696522  0.68116603    -0.81300
H1223       H  0.31113735  0.03117927  0.66914418     0.17900
C1224       C  0.34982752  0.15382519  0.69868351    -0.26100
C1225       C  0.36963949  0.18866323  0.70613003     0.35900
C1226       C  0.38162113  0.22492108  0.69959399    -0.20100
C1227       C  0.37362733  0.22523710  0.68574783    -0.25400
C1228       C  0.35363483  0.19028769  0.67836172     0.27300
H1229       H  0.33969682  0.12597791  0.70372053     0.13000
N1230       N  0.37618661  0.18706326  0.72038349    -0.82700
H1231       H  0.38303861  0.25286557  0.68065709     0.17900
N1232       N  0.34571338  0.19105354  0.66419320    -0.81300
H1233       H  0.36610931  0.15826097  0.72350500     0.33500
H1234       H  0.35938196  0.19647176  0.72552139     0.38000
H1235       H  0.35668979  0.21981929  0.66085626     0.33500
H1236       H  0.36089759  0.18001355  0.65891911     0.30200
H1237       H  0.36951945  0.07319553  0.67935684     0.33500
H1238       H  0.38651007  0.12030132  0.67540864     0.30200
H1239       H  0.19508297  0.04139058  0.66855758     0.38100
H1240       H  0.21203662  0.08833752  0.66440766     0.33500
C1241       C  0.73790866  0.02671273  0.37364950    -0.20200
C1242       C  0.76715155  0.06503890  0.37718841     0.36000
C1243       C  0.76316422  0.09705417  0.37334952    -0.26200
C1244       C  0.73060248  0.09175196  0.36594017     0.02400
C1245       C  0.70218778  0.05376729  0.36184068     0.27300
C1246       C  0.70623629  0.02176379  0.36566806    -0.25300
N1247       N  0.80114731  0.07179427  0.38455966    -0.82700
H1248       H  0.78541820  0.12626511  0.37633068     0.13100
C1249       C  0.72520802  0.12573183  0.36330410     0.02400
N1250       N  0.66875803  0.04770947  0.35413257    -0.81300
H1251       H  0.68368197  0.99264360  0.36275236     0.17900
C1252       C  0.72129929  0.13563663  0.34995904    -0.26100
C1253       C  0.71275807  0.16549794  0.34723635     0.35900
C1254       C  0.70806597  0.18584164  0.35812048    -0.20100
C1255       C  0.71382728  0.17700571  0.37142497    -0.25400
C1256       C  0.72184196  0.14692832  0.37413847     0.27300
H1257       H  0.72436803  0.11956990  0.34165968     0.13000
N1258       N  0.70867337  0.17504309  0.33350540    -0.82700
H1259       H  0.71007696  0.19228014  0.37984304     0.17900
N1260       N  0.72511011  0.13683818  0.38788879    -0.81300
H1261       H  0.73108583  0.20371368  0.33166056     0.33500
H1262       H  0.71274813  0.15717939  0.32673094     0.38000
H1263       H  0.72202073  0.15532482  0.39466924     0.33500
H1264       H  0.70178973  0.10861969  0.38971426     0.30200
H1265       H  0.65077238  0.01809404  0.35181811     0.33500
H1266       H  0.65232286  0.05555735  0.36024301     0.30200
H1267       H  0.80251392  0.08653878  0.39348571     0.38100
H1268       H  0.82572653  0.09011457  0.37874665     0.33500
C1269       C  0.78104629  0.95983651  0.40631230    -0.20200
C1270       C  0.79641482  0.99065081  0.41587179     0.36000
C1271       C  0.81577212  0.98797942  0.42742282    -0.26200
C1272       C  0.81996036  0.95528552  0.42969876     0.02400
C1273       C  0.80514618  0.92479456  0.42017467     0.27300
C1274       C  0.78584599  0.92732943  0.40863612    -0.25300
N1275       N  0.79186338  0.02418129  0.41403482    -0.82700
H1276       H  0.82711592  0.01124103  0.43485152     0.13100
C1277       C  0.84001544  0.95340160  0.44211572     0.02400
N1278       N  0.81001154  0.89149746  0.42222880    -0.81300
H1279       H  0.77465397  0.90365146  0.40138145     0.17900
C1280       C  0.81971304  0.92273675  0.45137996    -0.26100
C1281       C  0.83761185  0.92037231  0.46336983     0.35900
C1282       C  0.87679872  0.94909871  0.46603102    -0.20100
C1283       C  0.89697387  0.97980751  0.45672410    -0.25400
C1284       C  0.87905465  0.98212793  0.44477046     0.27300
H1285       H  0.78954798  0.90097186  0.44933688     0.13000
N1286       N  0.81585062  0.88956880  0.47297432    -0.82700
H1287       H  0.92707981  0.00187841  0.45870279     0.17900
N1288       N  0.90038288  0.01331744  0.43524746    -0.81300
H1289       H  0.78753665  0.87080927  0.46943349     0.33500
H1290       H  0.81301909  0.90246720  0.48179122     0.38000
H1291       H  0.92873621  0.03216344  0.43873817     0.33500
H1292       H  0.90309646  0.00081980  0.42631165     0.30200
H1293       H  0.79722959  0.87148287  0.41431634     0.33500
H1294       H  0.83993843  0.90140150  0.42192581     0.30200
H1295       H  0.80612172  0.04462613  0.42172866     0.38100
H1296       H  0.76213920  0.01471375  0.41499449     0.33500
C1297       C  0.53799873  0.56408455  0.33133162    -0.20200
C1298       C  0.57434200  0.56948691  0.33572866     0.36000
C1299       C  0.57781500  0.53709495  0.33923188    -0.26200
C1300       C  0.54562675  0.49923412  0.33852402     0.02400
C1301       C  0.50904431  0.49342151  0.33435455     0.27300
C1302       C  0.50564479  0.52598114  0.33066636    -0.25300
N1303       N  0.60815408  0.60773518  0.33634716    -0.82700
H1304       H  0.60596574  0.54149349  0.34239395     0.13100
C1305       C  0.55134312  0.46607225  0.34184758     0.02400
N1306       N  0.47548558  0.45466830  0.33417431    -0.81300
H1307       H  0.47756919  0.52168342  0.32748369     0.17900
C1308       C  0.55457107  0.45817680  0.35550125    -0.26100
C1309       C  0.56229637  0.42842330  0.35918241     0.35900
C1310       C  0.56680319  0.40609994  0.34903984    -0.20100
C1311       C  0.56310082  0.41388658  0.33538050    -0.25400
C1312       C  0.55583332  0.44370277  0.33163633     0.27300
H1313       H  0.55142181  0.47548147  0.36333734     0.13000
N1314       N  0.56513731  0.42078126  0.37318924    -0.82700
H1315       H  0.56739373  0.39761852  0.32742868     0.17900
N1316       N  0.55484644  0.45125699  0.31742231    -0.81300
H1317       H  0.53886774  0.41402984  0.37789270     0.33500
H1318       H  0.58741222  0.44643201  0.37754491     0.38000
H1319       H  0.53090782  0.42664488  0.31319150     0.33500
H1320       H  0.55067588  0.47489348  0.31565412     0.30200
H1321       H  0.45057930  0.45556831  0.33125238     0.33500
H1322       H  0.48004739  0.43864090  0.32676104     0.30200
H1323       H  0.62957102  0.60830505  0.33004366     0.38100
H1324       H  0.61875908  0.61254960  0.34627541     0.33500
C1325       C  0.48385125  0.62647175  0.30177853    -0.20200
C1326       C  0.46383400  0.64764294  0.30149599     0.36000
C1327       C  0.44682634  0.65034082  0.28934593    -0.26200
C1328       C  0.44946471  0.63235244  0.27755231     0.02400
C1329       C  0.46852538  0.61045614  0.27785169     0.27300
C1330       C  0.48534278  0.60748578  0.29001163    -0.25300
N1331       N  0.46089247  0.66631429  0.31353025    -0.82700
H1332       H  0.43165402  0.66670797  0.28901917     0.13100
C1333       C  0.43167514  0.63622889  0.26493427     0.02400
N1334       N  0.47166816  0.59234412  0.26570367    -0.81300
H1335       H  0.50096427  0.59156284  0.29016783     0.17900
C1336       C  0.45437110  0.66664354  0.25586588    -0.26100
C1337       C  0.43866584  0.67030613  0.24351486     0.35900
C1338       C  0.39953471  0.64265920  0.24023797    -0.20100
C1339       C  0.37683569  0.61270978  0.24953871    -0.25400
C1340       C  0.39251297  0.60919842  0.26183431     0.27300
H1341       H  0.48452761  0.68728240  0.25839594     0.13000
N1342       N  0.46279028  0.70075383  0.23411082    -0.82700
H1343       H  0.34667483  0.59166856  0.24714795     0.17900
N1344       N  0.36888343  0.57832346  0.27119285    -0.81300
H1345       H  0.49151360  0.71664225  0.23767204     0.33500
H1346       H  0.45256479  0.72045810  0.23373224     0.38000
H1347       H  0.34048486  0.56122150  0.26745262     0.33500
H1348       H  0.38058543  0.55990150  0.27192474     0.30200
H1349       H  0.48724538  0.57794792  0.26757056     0.33500
H1350       H  0.44351641  0.57083568  0.26284745     0.30200
H1351       H  0.44447289  0.64434019  0.32058107     0.38100
H1352       H  0.44548370  0.68084032  0.31157280     0.33500
C1353       C  0.68920646  0.88534566  0.36999826    -0.20200
C1354       C  0.67813716  0.88250952  0.35624051     0.36000
C1355       C  0.65327152  0.84552088  0.35064521    -0.26200
C1356       C  0.64003375  0.81148030  0.35839898     0.02400
C1357       C  0.65132269  0.81406209  0.37203603     0.27300
C1358       C  0.67576269  0.85097239  0.37771121    -0.25300
N1359       N  0.69292812  0.91690529  0.34789608    -0.82700
H1360       H  0.64495784  0.84305449  0.34007822     0.13100
C1361       C  0.61606811  0.77315389  0.35186285     0.02400
N1362       N  0.63789223  0.77915682  0.38002509    -0.81300
H1363       H  0.68402901  0.85284446  0.38826120     0.17900
C1364       C  0.63171610  0.74862191  0.35043544    -0.26100
C1365       C  0.61096787  0.71279042  0.34368026     0.35900
C1366       C  0.57322691  0.70082181  0.33858342    -0.20100
C1367       C  0.55762558  0.72557029  0.34004954    -0.25400
C1368       C  0.57875729  0.76172417  0.34664492     0.27300
H1369       H  0.66078838  0.75810512  0.35427097     0.13000
N1370       N  0.62879344  0.68940590  0.34152815    -0.82700
H1371       H  0.52878234  0.71658508  0.33610280     0.17900
N1372       N  0.56262078  0.78690748  0.34807613    -0.81300
H1373       H  0.65640471  0.70224220  0.34604191     0.33500
H1374       H  0.63320303  0.68900689  0.33111501     0.38000
H1375       H  0.53497180  0.77429068  0.34360128     0.33500
H1376       H  0.55868908  0.78933182  0.35841090     0.30200
H1377       H  0.64909593  0.78610096  0.38985802     0.33500
H1378       H  0.60753913  0.76583362  0.38085037     0.30200
H1379       H  0.72311767  0.92877328  0.34704665     0.38100
H1380       H  0.68158212  0.90960615  0.33808953     0.33500
C1381       C  0.79580657  0.97617352  0.13518947    -0.20200
C1382       C  0.83504092  0.00539096  0.13260599     0.36000
C1383       C  0.85332186  0.00368226  0.12064323    -0.26200
C1384       C  0.83358891  0.97322772  0.11132056     0.02400
C1385       C  0.79519807  0.94318466  0.11415804     0.27300
C1386       C  0.77683644  0.94484741  0.12606439    -0.25300
N1387       N  0.85630221  0.03655224  0.14209876    -0.82700
H1388       H  0.88314340  0.02624909  0.11853630     0.13100
C1389       C  0.85313100  0.97344001  0.09848397     0.02400
N1390       N  0.77464620  0.91160800  0.10475069    -0.81300
H1391       H  0.74696011  0.92211064  0.12795260     0.17900
C1392       C  0.85991985  0.94266136  0.09575645    -0.26100
C1393       C  0.87781340  0.94148137  0.08364545     0.35900
C1394       C  0.88862489  0.97155362  0.07388638    -0.20100
C1395       C  0.88213343  0.00260692  0.07673632    -0.25400
C1396       C  0.86434283  0.00374606  0.08890551     0.27300
H1397       H  0.85162372  0.91968443  0.10322265     0.13000
N1398       N  0.88585324  0.91032258  0.08140588    -0.82700
H1399       H  0.89046896  0.02580192  0.06936177     0.17900
N1400       N  0.85718094  0.03529717  0.09153180    -0.81300
H1401       H  0.87569599  0.89048944  0.08947759     0.33500
H1402       H  0.91620136  0.92267460  0.08120767     0.38000
H1403       H  0.86719293  0.05527973  0.08350562     0.33500
H1404       H  0.82693246  0.02346543  0.09200478     0.30200
H1405       H  0.74672913  0.89175439  0.10836175     0.33500
H1406       H  0.77077183  0.92347295  0.09581157     0.30200
H1407       H  0.88451302  0.05573456  0.13856821     0.38100
H1408       H  0.85947483  0.02404304  0.15099968     0.33500
C1409       C  0.68175433  0.91136111  0.16565035    -0.20200
C1410       C  0.67445967  0.87306465  0.16298260     0.36000
C1411       C  0.63826904  0.84058412  0.16663020    -0.26200
C1412       C  0.60942203  0.84546602  0.17295758     0.02400
C1413       C  0.61659506  0.88339471  0.17570038     0.27300
C1414       C  0.65274543  0.91588562  0.17215558    -0.25300
N1415       N  0.70369007  0.86712977  0.15666062    -0.82700
H1416       H  0.63239155  0.81125697  0.16450659     0.13100
C1417       C  0.57077608  0.81084131  0.17595442     0.02400
N1418       N  0.58667884  0.88871238  0.18178017    -0.81300
H1419       H  0.65775564  0.94496124  0.17413937     0.17900
C1420       C  0.55850536  0.80108990  0.18943644    -0.26100
C1421       C  0.52053918  0.77061365  0.19255129     0.35900
C1422       C  0.49450056  0.74953635  0.18192428    -0.20100
C1423       C  0.50749502  0.75869615  0.16845493    -0.25400
C1424       C  0.54514680  0.78934071  0.16536463     0.27300
H1425       H  0.57846037  0.81778727  0.19752315     0.13000
N1426       N  0.50837258  0.76113988  0.20640505    -0.82700
H1427       H  0.48755638  0.74303759  0.16023570     0.17900
N1428       N  0.55704386  0.79961699  0.15150810    -0.81300
H1429       H  0.53094108  0.77952009  0.21296130     0.33500
H1430       H  0.50288872  0.73276205  0.20820775     0.38000
H1431       H  0.53472842  0.78094282  0.14492225     0.33500
H1432       H  0.56148221  0.82767691  0.14983409     0.30200
H1433       H  0.59652013  0.91844333  0.18313520     0.33500
H1434       H  0.56329289  0.87820978  0.17497933     0.30200
H1435       H  0.72724704  0.87712653  0.16336458     0.38100
H1436       H  0.69331836  0.83732837  0.15519917     0.33500
C1437       C  0.84520337  0.30550460  0.24671690    -0.20200
C1438       C  0.84208338  0.33823759  0.25055038     0.36000
C1439       C  0.82060411  0.33587079  0.26219457    -0.26200
C1440       C  0.80321474  0.30203537  0.27027494     0.02400
C1441       C  0.80822555  0.27028736  0.26686008     0.27300
C1442       C  0.82857556  0.27210505  0.25502155    -0.25300
N1443       N  0.85894899  0.37296354  0.24231423    -0.82700
H1444       H  0.81671936  0.36023905  0.26484382     0.13100
C1445       C  0.77845093  0.29942688  0.28195988     0.02400
N1446       N  0.79243147  0.23625027  0.27542380    -0.81300
H1447       H  0.83148135  0.24722789  0.25224702     0.17900
C1448       C  0.73969134  0.26833942  0.28256906    -0.26100
C1449       C  0.71523488  0.26419152  0.29349700     0.35900
C1450       C  0.72942189  0.29278006  0.30380093    -0.20100
C1451       C  0.76824395  0.32399909  0.30311347    -0.25400
C1452       C  0.79301705  0.32734161  0.29242593     0.27300
H1453       H  0.72850987  0.24707112  0.27445777     0.13000
N1454       N  0.67591722  0.23170242  0.29390273    -0.82700
H1455       H  0.77958926  0.34566871  0.31110167     0.17900
N1456       N  0.83298122  0.35868606  0.29224295    -0.81300
H1457       H  0.66937466  0.21521760  0.28503334     0.33500
H1458       H  0.67445390  0.21317448  0.30172870     0.38000
H1459       H  0.83903555  0.37674136  0.30068079     0.33500
H1460       H  0.85071499  0.34622155  0.29308308     0.30200
H1461       H  0.79856849  0.21545271  0.27148420     0.33500
H1462       H  0.80674847  0.24491363  0.28475769     0.30200
H1463       H  0.88927363  0.38660858  0.24335134     0.38100
H1464       H  0.85123485  0.39289263  0.24598881     0.33500
C1465       C  0.94746290  0.36913988  0.21173664    -0.20200
C1466       C  0.95271829  0.37742492  0.19774831     0.36000
C1467       C  0.98783593  0.40893135  0.19301153    -0.26200
C1468       C  0.01826909  0.43199491  0.20196853     0.02400
C1469       C  0.01318345  0.42390432  0.21598689     0.27300
C1470       C  0.97750029  0.39294673  0.22075583    -0.25300
N1471       N  0.92228569  0.35416400  0.18831503    -0.82700
H1472       H  0.99152139  0.41519672  0.18225661     0.13100
C1473       C  0.05582811  0.46374163  0.19655477     0.02400
N1474       N  0.04466127  0.44645505  0.22525084    -0.81300
H1475       H  0.97371372  0.38638738  0.23148802     0.17900
C1476       C  0.06990362  0.50217992  0.20093950    -0.26100
C1477       C  0.10713686  0.53243390  0.19715716     0.35900
C1478       C  0.13115947  0.52376787  0.18899942    -0.20100
C1479       C  0.11565427  0.48577200  0.18378785    -0.23600
C1480       C  0.07830676  0.45563683  0.18752554     0.27300
H1481       H  0.05196612  0.50838873  0.20756488     0.13000
N1482       N  0.12078057  0.57166202  0.20178237    -0.82700
H1483       H  0.13348380  0.47890650  0.17737299     0.17900
N1484       N  0.06374787  0.41653373  0.18261251    -0.81300
H1485       H  0.09973980  0.57280721  0.20780654     0.33500
H1486       H  0.12460741  0.58897974  0.19326114     0.38000
H1487       H  0.08367646  0.41558260  0.17594361     0.33500
H1488       H  0.06132947  0.39893329  0.19089355     0.30200
H1489       H  0.03623412  0.43675787  0.23518844     0.33500
H1490       H  0.06743641  0.44134722  0.22293651     0.30200
H1491       H  0.93332472  0.34236817  0.18134797     0.38100
H1492       H  0.91499284  0.37257545  0.18305799     0.33500
C1493       C  0.77494912  0.05276294  0.17024746    -0.20200
C1494       C  0.79658447  0.08896407  0.16348210     0.36000
C1495       C  0.80940937  0.12399841  0.17059023    -0.26200
C1496       C  0.80101603  0.12379676  0.18439237     0.02400
C1497       C  0.77815840  0.08764155  0.19107936     0.27300
C1498       C  0.76523242  0.05258219  0.18392252    -0.25300
N1499       N  0.80483583  0.09037749  0.14932123    -0.82700
H1500       H  0.82601143  0.15158579  0.16527622     0.13100
C1501       C  0.81684973  0.16153156  0.19177022     0.02400
N1502       N  0.76876671  0.08663706  0.20517429    -0.81300
H1503       H  0.74838904  0.02495583  0.18918292     0.17900
C1504       C  0.79138341  0.16963147  0.19906150    -0.26100
C1505       C  0.80546834  0.20423096  0.20661534     0.35900
C1506       C  0.84594462  0.23160860  0.20673214    -0.20100
C1507       C  0.87122788  0.22392698  0.19913418    -0.25400
C1508       C  0.85724214  0.18907898  0.19179269     0.27300
H1509       H  0.76030361  0.14883213  0.19882417     0.13000
N1510       N  0.77874714  0.21180819  0.21397287    -0.82700
H1511       H  0.90230486  0.24478942  0.19920590     0.17900
N1512       N  0.88401304  0.18124955  0.18457392    -0.81300
H1513       H  0.75011945  0.18852356  0.21294510     0.33500
H1514       H  0.77944697  0.23619243  0.20954958     0.38000
H1515       H  0.91263758  0.20458937  0.18553607     0.33500
H1516       H  0.88332529  0.15703242  0.18913420     0.30200
H1517       H  0.75139982  0.05779817  0.20852662     0.33500
H1518       H  0.79488469  0.09856118  0.21064458     0.30200
H1519       H  0.83513264  0.10643134  0.14804911     0.38100
H1520       H  0.79286817  0.10539067  0.14441825     0.33500
C1521       C  0.81369359  0.35922584  0.34858730    -0.20200
C1522       C  0.82674330  0.33260214  0.35153536     0.36000
C1523       C  0.86493362  0.34224440  0.34804366    -0.26200
C1524       C  0.89039594  0.37749935  0.34144925     0.02400
C1525       C  0.87758276  0.40420148  0.33855837     0.27300
C1526       C  0.83937341  0.39471641  0.34209154    -0.25300
N1527       N  0.80068269  0.29502664  0.35745401    -0.82700
H1528       H  0.87437516  0.32129655  0.34995641     0.13100
C1529       C  0.92909586  0.38430325  0.33675617     0.02400
N1530       N  0.90337207  0.44074563  0.33198356    -0.81300
H1531       H  0.82953326  0.41510494  0.33971233     0.17900
C1532       C  0.93852339  0.39112457  0.32295709    -0.26100
C1533       C  0.97256054  0.39317849  0.31777612     0.35900
C1534       C  0.99800256  0.38834176  0.32663328    -0.20100
C1535       C  0.98906752  0.38278867  0.34052706    -0.25400
C1536       C  0.95510722  0.38089821  0.34567594     0.27300
H1537       H  0.91829005  0.39315972  0.31607068     0.13000
N1538       N  0.98033998  0.39861180  0.30349235    -0.82700
H1539       H  0.00857473  0.37962663  0.34743885     0.17900
N1540       N  0.94670862  0.37513408  0.35991835    -0.81300
H1541       H  0.95931530  0.40265002  0.29851210     0.33500
H1542       H  0.97759198  0.37272200  0.29968829     0.38000
H1543       H  0.96856141  0.37289415  0.36508636     0.33500
H1544       H  0.94721595  0.40011086  0.36360615     0.30200
H1545       H  0.88945911  0.45695287  0.33047450     0.33500
H1546       H  0.92681104  0.45701523  0.33853122     0.30200
H1547       H  0.77871050  0.27903504  0.35036791     0.38100
H1548       H  0.81501933  0.27930526  0.35915698     0.33500
C1549       C  0.10269609  0.42372010  0.29281738    -0.20200
C1550       C  0.11833011  0.40812297  0.28353819     0.36000
C1551       C  0.14089916  0.43119300  0.27257163    -0.26200
C1552       C  0.14760630  0.46919479  0.27058802     0.02400
C1553       C  0.13108046  0.48437627  0.27959067     0.27300
C1554       C  0.10856820  0.46139119  0.29055941    -0.25300
N1555       N  0.11077547  0.36880070  0.28516674    -0.82700
H1556       H  0.15315572  0.41947713  0.26547390     0.13100
C1557       C  0.17177295  0.49273182  0.25896556     0.02400
N1558       N  0.13781238  0.52332101  0.27766608    -0.81300
H1559       H  0.09660024  0.47344920  0.29763362     0.17900
C1560       C  0.15377622  0.50035408  0.24810955    -0.26100
C1561       C  0.17562313  0.52286363  0.23696079     0.35900
C1562       C  0.21646889  0.53760194  0.23658669    -0.20100
C1563       C  0.23430163  0.52944689  0.24742741    -0.25400
C1564       C  0.21242720  0.50764530  0.25870803     0.27300
H1565       H  0.12249207  0.48871478  0.24837422     0.13000
N1566       N  0.15615949  0.52956805  0.22585403    -0.82700
H1567       H  0.26555583  0.54091801  0.24723470     0.17900
N1568       N  0.23131774  0.50095546  0.26998781    -0.81300
H1569       H  0.12586913  0.51332370  0.22711373     0.33500
H1570       H  0.16348915  0.55887580  0.22620667     0.38000
H1571       H  0.26131339  0.51385978  0.26823260     0.33500
H1572       H  0.22817691  0.51516259  0.27837794     0.30200
H1573       H  0.12355279  0.53009131  0.28513985     0.33500
H1574       H  0.16771643  0.54275779  0.27893555     0.30200
H1575       H  0.08070465  0.34995390  0.28402838     0.38100
H1576       H  0.12428045  0.36181609  0.27747764     0.33500
C1577       C  0.15320226  0.14888213  0.40657299    -0.20200
C1578       C  0.17071029  0.13542698  0.41603519     0.36000
C1579       C  0.14926143  0.11297854  0.42719102    -0.26200
C1580       C  0.11056610  0.10358232  0.42921539     0.02400
C1581       C  0.09258891  0.11634229  0.41979674     0.27300
C1582       C  0.11411749  0.13903661  0.40861391    -0.25300
N1583       N  0.21060803  0.14529112  0.41464168    -0.82700
H1584       H  0.16322456  0.10346167  0.43449800     0.13100
C1585       C  0.08997151  0.08179224  0.44158972     0.02400
N1586       N  0.05256026  0.10608440  0.42163286    -0.81300
H1587       H  0.10013693  0.14880387  0.40142046     0.17900
C1588       C  0.07989143  0.10062540  0.45139952    -0.26100
C1589       C  0.06243679  0.08196815  0.46364819     0.35900
C1590       C  0.05426385  0.04329557  0.46601364    -0.20100
C1591       C  0.06455558  0.02454452  0.45616266    -0.25400
C1592       C  0.08219406  0.04338145  0.44394254     0.27300
H1593       H  0.08654975  0.13039033  0.44959751     0.13000
N1594       N  0.05385777  0.10249988  0.47379925    -0.82700
H1595       H  0.05817116  0.99483716  0.45789359     0.17900
N1596       N  0.09201635  0.02366478  0.43386200    -0.81300
H1597       H  0.06149336  0.13053437  0.47042846     0.33500
H1598       H  0.07151736  0.10621790  0.48219661     0.38000
H1599       H  0.08445924  0.99558390  0.43715893     0.33500
H1600       H  0.07496536  0.02008721  0.42530223     0.30200
H1601       H  0.04365466  0.11776860  0.41383059     0.33500
H1602       H  0.03535811  0.07565546  0.42088246     0.30200
H1603       H  0.21135453  0.11929238  0.41412837     0.38100
H1604       H  0.22577093  0.16034672  0.42333081     0.33500
C1605       C  0.45091909  0.22166540  0.35886537    -0.20200
C1606       C  0.42661679  0.22109252  0.34824888     0.36000
C1607       C  0.38879172  0.21390632  0.35112401    -0.26200
C1608       C  0.37455447  0.20721540  0.36443237     0.02400
C1609       C  0.39804923  0.20632483  0.37499848     0.27300
C1610       C  0.43572702  0.21314568  0.37210216    -0.25300
N1611       N  0.44016194  0.22787420  0.33453956    -0.82700
H1612       H  0.37070376  0.21432792  0.34295415     0.13100
C1613       C  0.33620263  0.20388868  0.36739236     0.02400
N1614       N  0.38404289  0.19988976  0.38870845    -0.81300
H1615       H  0.45399951  0.21372269  0.38037712     0.17900
C1616       C  0.30518427  0.16845354  0.37221749    -0.26100
C1617       C  0.26937591  0.16518665  0.37596319     0.35900
C1618       C  0.26457634  0.19823877  0.37491111    -0.20100
C1619       C  0.29550468  0.23343648  0.36981183    -0.25400
C1620       C  0.33135243  0.23669975  0.36619324     0.27300
H1621       H  0.30909484  0.14334468  0.37313752     0.13000
N1622       N  0.23790201  0.12839602  0.38074706    -0.82700
H1623       H  0.29218740  0.25893256  0.36907994     0.17900
N1624       N  0.36327991  0.27350193  0.36163550    -0.81300
H1625       H  0.24631191  0.10724929  0.38101411     0.33500
H1626       H  0.21513422  0.11872399  0.37371985     0.38000
H1627       H  0.35506497  0.29479086  0.36133673     0.33500
H1628       H  0.38563118  0.28282745  0.36881862     0.30200
H1629       H  0.40482378  0.20012488  0.39530934     0.33500
H1630       H  0.38059406  0.22345830  0.39146425     0.30200
H1631       H  0.43878956  0.25193899  0.33083944     0.38100
H1632       H  0.42106320  0.20342358  0.32880912     0.33500
C1633       C  0.16821495  0.24270885  0.37069842    -0.20200
C1634       C  0.19334575  0.27784950  0.36369430     0.36000
C1635       C  0.17748671  0.29807696  0.35691624    -0.26200
C1636       C  0.13720854  0.28410063  0.35698659     0.02400
C1637       C  0.11205891  0.24915943  0.36393481     0.27300
C1638       C  0.12786221  0.22915870  0.37085367    -0.25300
N1639       N  0.23480002  0.29302072  0.36350083    -0.82700
H1640       H  0.19656480  0.32473735  0.35141762     0.13100
C1641       C  0.12158003  0.30471796  0.34882263     0.02400
N1642       N  0.07044725  0.23298565  0.36333150    -0.81300
H1643       H  0.10830166  0.20208136  0.37604474     0.17900
C1644       C  0.11708756  0.29814800  0.33482563    -0.26100
C1645       C  0.10254156  0.31702379  0.32658271     0.35900
C1646       C  0.09212753  0.34289100  0.33250858    -0.20100
C1647       C  0.09660265  0.34938852  0.34653851    -0.25400
C1648       C  0.11187200  0.33108876  0.35473999     0.27300
H1649       H  0.12489294  0.27807331  0.33034053     0.13000
N1650       N  0.09774171  0.30954503  0.31227933    -0.82700
H1651       H  0.08912648  0.36967160  0.35105466     0.17900
N1652       N  0.11919466  0.34056024  0.36888037    -0.81300
H1653       H  0.10694042  0.28997193  0.30953570     0.33500
H1654       H  0.06786082  0.29573271  0.31014040     0.38000
H1655       H  0.11166787  0.36149139  0.37150182     0.33500
H1656       H  0.10095409  0.31552830  0.37449462     0.30200
H1657       H  0.05601242  0.20629804  0.36850622     0.33500
H1658       H  0.06365322  0.25185868  0.36841133     0.30200
H1659       H  0.24505106  0.30077615  0.37341441     0.38100
H1660       H  0.24892119  0.31866369  0.35773294     0.33500
C1661       C  0.61246698  0.87369765  0.04092100    -0.20200
C1662       C  0.64544762  0.90992343  0.03745531     0.36000
C1663       C  0.67948016  0.91089991  0.03297380    -0.26200
C1664       C  0.68128636  0.87651575  0.03197428     0.02400
C1665       C  0.64853669  0.84035600  0.03558811     0.27300
C1666       C  0.61451446  0.83936041  0.04014726    -0.25300
N1667       N  0.64462977  0.94564158  0.03884338    -0.82700
H1668       H  0.70510846  0.93873429  0.03054473     0.13100
C1669       C  0.71878517  0.87957096  0.02811880     0.02400
N1670       N  0.64994643  0.80487318  0.03450957    -0.81300
H1671       H  0.58919193  0.81157360  0.04283481     0.17900
C1672       C  0.73705988  0.86711082  0.03734869    -0.26100
C1673       C  0.77486812  0.87422654  0.03505298     0.35900
C1674       C  0.79551211  0.89497303  0.02328887    -0.20100
C1675       C  0.77603547  0.90530774  0.01364565    -0.25400
C1676       C  0.73778058  0.89757305  0.01591990     0.27300
H1677       H  0.72247281  0.85310460  0.04671865     0.13000
N1678       N  0.79237321  0.86139917  0.04501295    -0.82700
H1679       H  0.79098538  0.92049575  0.00447896     0.17900
N1680       N  0.71834773  0.90856942  0.00604119    -0.81300
H1681       H  0.77478390  0.83109123  0.04611008     0.33500
H1682       H  0.79284823  0.87441999  0.05425585     0.38000
H1683       H  0.73631207  0.92162749  0.99763801     0.33500
H1684       H  0.69396910  0.88289731  0.00259220     0.30200
H1685       H  0.62346414  0.78081165  0.03758065     0.33500
H1686       H  0.65335967  0.80069078  0.02427448     0.30200
H1687       H  0.64140283  0.94942116  0.04913127     0.38100
H1688       H  0.67123438  0.96966293  0.03584078     0.33500
C1689       C  0.49801939  0.81852529  0.07128314    -0.20200
C1690       C  0.51224727  0.79884274  0.07949069     0.36000
C1691       C  0.49222086  0.77999867  0.09141846    -0.26200
C1692       C  0.45731238  0.77847142  0.09504615     0.02400
C1693       C  0.44174483  0.79578841  0.08647806     0.27300
C1694       C  0.46242892  0.81599182  0.07484648    -0.25300
N1695       N  0.54697720  0.79811443  0.07586014    -0.82700
H1696       H  0.50404649  0.76651404  0.09798992     0.13100
C1697       C  0.43762174  0.75917206  0.10793835     0.02400
N1698       N  0.40493256  0.79278898  0.08963582    -0.81300
H1699       H  0.45053244  0.82999011  0.06857490     0.17900
C1700       C  0.42874933  0.78009020  0.11733038    -0.26100
C1701       C  0.40937675  0.76284530  0.12951017     0.35900
C1702       C  0.39956701  0.72399249  0.13253621    -0.20100
C1703       C  0.40933367  0.70343542  0.12326235    -0.25400
C1704       C  0.42784699  0.72041133  0.11095206     0.27300
H1705       H  0.43696063  0.81010914  0.11511474     0.13000
N1706       N  0.40094781  0.78517904  0.13894853    -0.82700
H1707       H  0.40175145  0.67360064  0.12550997     0.17900
N1708       N  0.43633723  0.69828829  0.10144205    -0.81300
H1709       H  0.41358987  0.81427399  0.13575656     0.33500
H1710       H  0.37079282  0.77402871  0.13875713     0.38000
H1711       H  0.42752147  0.67035770  0.10524045     0.33500
H1712       H  0.41966515  0.69441481  0.09275312     0.30200
H1713       H  0.39760657  0.80725759  0.08235517     0.33500
H1714       H  0.38345015  0.76321236  0.08914794     0.30200
H1715       H  0.54058896  0.78116244  0.06710942     0.38100
H1716       H  0.55411695  0.78386567  0.08328792     0.33500
C1717       C  0.44357830  0.09936880  0.96236990    -0.20200
C1718       C  0.42261796  0.09992550  0.95085286     0.36000
C1719       C  0.44324843  0.12004822  0.93915320    -0.26200
C1720       C  0.48416083  0.13956218  0.93884577     0.02400
C1721       C  0.50505357  0.13910811  0.95030301     0.27300
C1722       C  0.48455676  0.11883555  0.96192430    -0.25300
N1723       N  0.38065323  0.07961955  0.95099084    -0.82700
H1724       H  0.42749716  0.12058697  0.93024761     0.13100
C1725       C  0.50523715  0.16070912  0.92651339     0.02400
N1726       N  0.54703946  0.15940805  0.95006334    -0.81300
H1727       H  0.50071265  0.11862142  0.97075778     0.17900
C1728       C  0.52593977  0.20168079  0.92661832    -0.26100
C1729       C  0.54813133  0.22295745  0.91539061     0.35900
C1730       C  0.54913652  0.20267791  0.90383244    -0.20100
C1731       C  0.52888643  0.16166210  0.90379648    -0.25400
C1732       C  0.50680075  0.14038777  0.91507654     0.27300
H1733       H  0.52510175  0.21699331  0.93556636     0.13000
N1734       N  0.57026917  0.26500741  0.91574542    -0.82700
H1735       H  0.52993262  0.14629223  0.89489648     0.17900
N1736       N  0.48611843  0.09834611  0.91502738    -0.81300
H1737       H  0.56640934  0.27537087  0.92499127     0.33500
H1738       H  0.59983687  0.27348303  0.91517694     0.38000
H1739       H  0.49012830  0.08793774  0.90581445     0.33500
H1740       H  0.49855132  0.08920958  0.92249231     0.30200
H1741       H  0.55803790  0.15658840  0.95936373     0.33500
H1742       H  0.55543691  0.14578133  0.94286186     0.30200
H1743       H  0.37075523  0.04974668  0.95198007     0.38100
H1744       H  0.36986442  0.08319225  0.94175528     0.33500
C1745       C  0.34113226  0.06324657  0.99689162    -0.20200
C1746       C  0.30987810  0.05630014  0.98827479     0.36000
C1747       C  0.27731305  0.05696372  0.99350383    -0.26200
C1748       C  0.27512011  0.06441905  0.00726717     0.02400
C1749       C  0.30675460  0.07219763  0.01587392     0.27300
C1750       C  0.33923835  0.07112401  0.01062532    -0.25300
N1751       N  0.31025333  0.04675781  0.97432758    -0.82700
H1752       H  0.25296124  0.05026393  0.98684401     0.13100
C1753       C  0.23811794  0.06052197  0.01261198     0.02400
N1754       N  0.30572125  0.08113025  0.02989643    -0.81300
H1755       H  0.36337207  0.07682957  0.01724918     0.17900
C1756       C  0.21779996  0.03311545  0.02286707    -0.26100
C1757       C  0.18010672  0.02416477  0.02690500     0.35900
C1758       C  0.16167141  0.04247681  0.02027453    -0.20100
C1759       C  0.18343086  0.07197920  0.01066024    -0.25400
C1760       C  0.22132863  0.08123966  0.00681825     0.27300
H1761       H  0.23081382  0.01737252  0.02738258     0.13000
N1762       N  0.16011094  0.99527357  0.03726565    -0.82700
H1763       H  0.17037714  0.08712970  0.00573462     0.17900
N1764       N  0.24249689  0.11096757  0.99681248    -0.81300
H1765       H  0.17697545  0.98328747  0.04053484     0.33500
H1766       H  0.15716849  0.00970046  0.04562596     0.38000
H1767       H  0.22600574  0.12327701  0.99345179     0.33500
H1768       H  0.26733816  0.13340628  0.00151436     0.30200
H1769       H  0.33113103  0.08601514  0.03485328     0.33500
H1770       H  0.30548884  0.10740670  0.03030617     0.30200
H1771       H  0.30745911  0.06718893  0.96842326     0.38100
H1772       H  0.28584389  0.01921001  0.97253537     0.33500
C1773       C  0.51270928  0.91228831  0.03546613    -0.20200
C1774       C  0.53801467  0.94933584  0.02960959     0.36000
C1775       C  0.52213739  0.96993094  0.02315507    -0.26200
C1776       C  0.48170330  0.95449575  0.02248144     0.02400
C1777       C  0.45634269  0.91737352  0.02807740     0.27300
C1778       C  0.47210721  0.89680219  0.03461481    -0.25300
N1779       N  0.57966708  0.96632193  0.03042887    -0.82700
H1780       H  0.54136021  0.99833847  0.01868684     0.13100
C1781       C  0.46640333  0.97708233  0.01543484     0.02400
N1782       N  0.41475247  0.90023448  0.02673219    -0.81300
H1783       H  0.45252451  0.86821774  0.03888729     0.17900
C1784       C  0.46253655  0.97442242  0.00134185    -0.26100
C1785       C  0.44844125  0.99552242  0.99417538     0.35900
C1786       C  0.43749304  0.01943921  0.00132104    -0.20100
C1787       C  0.44169723  0.02227373  0.01545882    -0.25400
C1788       C  0.45673205  0.00181341  0.02257561     0.27300
H1789       H  0.47055307  0.95573456  0.99592975     0.13000
N1790       N  0.44475285  0.99232605  0.97968862    -0.82700
H1791       H  0.43407607  0.04119323  0.02091096     0.17900
N1792       N  0.46350296  0.00706745  0.03691775    -0.81300
H1793       H  0.45452124  0.97400954  0.97600841     0.33500
H1794       H  0.41502567  0.97889796  0.97733963     0.38000
H1795       H  0.45592741  0.02711430  0.04057433     0.33500
H1796       H  0.44495630  0.98041879  0.04167229     0.30200
H1797       H  0.40024036  0.87232736  0.03108354     0.33500
H1798       H  0.40638191  0.91727655  0.03224073     0.30200
H1799       H  0.58751927  0.97217783  0.04062591     0.38100
H1800       H  0.59393479  0.99322014  0.02537812     0.33500
C1801       C  0.38881106  0.61745187  0.63443469    -0.20200
C1802       C  0.36706162  0.59169278  0.62378259     0.36000
C1803       C  0.38639484  0.59182241  0.61185977    -0.26200
C1804       C  0.42684990  0.61652038  0.61048779     0.02400
C1805       C  0.44854016  0.64171331  0.62117617     0.27300
C1806       C  0.42921031  0.64233344  0.63294404    -0.25300
N1807       N  0.32538976  0.56675293  0.62483276    -0.82700
H1808       H  0.36987082  0.57277733  0.60355391     0.13100
C1809       C  0.44636519  0.61648430  0.59773428     0.02400
N1810       N  0.49020974  0.66632225  0.62005700    -0.81300
H1811       H  0.44590851  0.66187903  0.64112072     0.17900
C1812       C  0.46692974  0.65143092  0.59039938    -0.26100
C1813       C  0.48818809  0.65375230  0.57875321     0.35900
C1814       C  0.48823038  0.61993813  0.57416751    -0.20100
C1815       C  0.46644815  0.58457173  0.58135188    -0.25400
C1816       C  0.44574702  0.58256080  0.59312431     0.27300
H1817       H  0.46678939  0.67725848  0.59392416     0.13000
N1818       N  0.50884661  0.69012249  0.57148676    -0.82700
H1819       H  0.46607728  0.55841903  0.57792086     0.17900
N1820       N  0.42459348  0.54642539  0.60051193    -0.81300
H1821       H  0.50211961  0.71057158  0.57536329     0.33500
H1822       H  0.53862664  0.70159656  0.57334718     0.38000
H1823       H  0.42685314  0.52414446  0.59571441     0.33500
H1824       H  0.43790800  0.55047061  0.60998325     0.30200
H1825       H  0.50179533  0.68323215  0.62877637     0.33500
H1826       H  0.50214324  0.64807673  0.61946696     0.30200
H1827       H  0.31998808  0.54460774  0.63177508     0.38100
H1828       H  0.31363336  0.55261819  0.61564091     0.33500
C1829       C  0.59363846  0.68912529  0.54033049    -0.20200
C1830       C  0.60450238  0.69353963  0.52652256     0.36000
C1831       C  0.64034825  0.72564900  0.52245154    -0.26200
C1832       C  0.66509253  0.75407341  0.53176587     0.02400
C1833       C  0.65272758  0.75163621  0.54529112     0.27300
C1834       C  0.61717288  0.71912118  0.54945032    -0.25300
N1835       N  0.57919161  0.66544509  0.51667450    -0.82700
H1836       H  0.64950318  0.72819446  0.51199382     0.13100
C1837       C  0.70528015  0.78395997  0.52752449     0.02400
N1838       N  0.67689685  0.78151891  0.55483546    -0.81300
H1839       H  0.60868283  0.71645904  0.55998519     0.17900
C1840       C  0.71752404  0.82395825  0.52819053    -0.26100
C1841       C  0.75643081  0.85268665  0.52523560     0.35900
C1842       C  0.78351546  0.84104605  0.52157149    -0.20100
C1843       C  0.77067735  0.80103257  0.52033747    -0.25400
C1844       C  0.73203555  0.77240854  0.52340706     0.27300
H1845       H  0.69676496  0.83270674  0.53118810     0.13000
N1846       N  0.76853196  0.89352219  0.52593782    -0.82700
H1847       H  0.79141048  0.79200522  0.51759229     0.17900
N1848       N  0.72014994  0.73158851  0.52279286    -0.81300
H1849       H  0.74512024  0.89712634  0.52873995     0.33500
H1850       H  0.77669351  0.90516331  0.51618736     0.38000
H1851       H  0.74323466  0.72798824  0.51955755     0.33500
H1852       H  0.71333431  0.72035954  0.53263355     0.30200
H1853       H  0.66348851  0.77556722  0.56432886     0.33500
H1854       H  0.70268393  0.78070876  0.55604474     0.30200
H1855       H  0.55352307  0.66678914  0.51630081     0.38100
H1856       H  0.59154664  0.67295293  0.50701661     0.33500
C1857       C  0.14885327  0.05989534  0.51536792    -0.20200
C1858       C  0.17364730  0.07921478  0.52643175     0.36000
C1859       C  0.21195847  0.10970043  0.52410860    -0.26200
C1860       C  0.22596783  0.12135343  0.51089715     0.02400
C1861       C  0.20161349  0.10147992  0.49979233     0.27300
C1862       C  0.16346304  0.07070923  0.50214671    -0.25300
N1863       N  0.16016238  0.06780556  0.54002728    -0.82700
H1864       H  0.23075222  0.12464526  0.53265869     0.13100
C1865       C  0.26558310  0.15535775  0.50872373     0.02400
N1866       N  0.21534372  0.11342870  0.48617967    -0.81300
H1867       H  0.14447875  0.05633219  0.49358136     0.17900
C1868       C  0.29293702  0.15045969  0.50133132    -0.26100
C1869       C  0.32924435  0.18265204  0.49783603     0.35900
C1870       C  0.33846634  0.22067438  0.50172492    -0.20100
C1871       C  0.31184813  0.22512003  0.50984738    -0.25400
C1872       C  0.27540668  0.19292304  0.51329858     0.27300
H1873       H  0.28574794  0.12147898  0.49804671     0.13000
N1874       N  0.35658804  0.17643990  0.49039100    -0.82700
H1875       H  0.31863884  0.25403539  0.51303640     0.17900
N1876       N  0.24785662  0.19840023  0.52103671    -0.81300
H1877       H  0.36243893  0.15750806  0.49599723     0.33500
H1878       H  0.34338059  0.16257658  0.48130156     0.38000
H1879       H  0.25973703  0.22778163  0.52370896     0.33500
H1880       H  0.22384295  0.19134628  0.51480440     0.30200
H1881       H  0.19388920  0.09570844  0.47917321     0.33500
H1882       H  0.22022366  0.14176537  0.48483085     0.30200
H1883       H  0.16280403  0.09220136  0.54507281     0.38100
H1884       H  0.17853213  0.05961445  0.54480837     0.33500
C1885       C  0.44354411  0.28845059  0.46786292    -0.20200
C1886       C  0.42291281  0.26494784  0.45669673     0.36000
C1887       C  0.44320143  0.26649313  0.44486733    -0.26200
C1888       C  0.48376562  0.29150884  0.44394715     0.02400
C1889       C  0.50448580  0.31510450  0.45506967     0.27300
C1890       C  0.48413810  0.31351712  0.46688785    -0.25300
N1891       N  0.38126701  0.24067037  0.45712942    -0.82700
H1892       H  0.42716792  0.24854257  0.43628123     0.13100
C1893       C  0.50435923  0.29269150  0.43130609     0.02400
N1894       N  0.54612802  0.34036993  0.45431840    -0.81300
H1895       H  0.50012272  0.33166740  0.47544061     0.17900
C1896       C  0.52178785  0.32684812  0.42341942    -0.26100
C1897       C  0.54186823  0.32915112  0.41139887     0.35900
C1898       C  0.54492535  0.29653996  0.40726441    -0.20100
C1899       C  0.52692093  0.26228085  0.41522651    -0.25400
C1900       C  0.50710690  0.26017525  0.42723106     0.27300
H1901       H  0.51933172  0.35168381  0.42661812     0.13000
N1902       N  0.55840279  0.36417456  0.40332775    -0.82700
H1903       H  0.52860840  0.23697605  0.41218269     0.17900
N1904       N  0.49017864  0.22532101  0.43541076    -0.81300
H1905       H  0.54304629  0.35715807  0.39417801     0.33500
H1906       H  0.55408058  0.38544525  0.40792877     0.38000
H1907       H  0.49472936  0.20397313  0.43099652     0.33500
H1908       H  0.50501611  0.23248671  0.44466703     0.30200
H1909       H  0.55695321  0.35595949  0.46333274     0.33500
H1910       H  0.55855424  0.32264051  0.45334416     0.30200
H1911       H  0.37418525  0.21182738  0.45530393     0.38100
H1912       H  0.36948609  0.24933884  0.44928851     0.33500
C1913       C  0.43072250  0.36211989  0.50514098    -0.20200
C1914       C  0.42956817  0.36552834  0.51932897     0.36000
C1915       C  0.44224528  0.40247102  0.52501755    -0.26200
C1916       C  0.45619382  0.43588291  0.51682875     0.02400
C1917       C  0.45714461  0.43249003  0.50267684     0.27300
C1918       C  0.44450954  0.39563635  0.49697882    -0.25300
N1919       N  0.41655955  0.33180766  0.52791319    -0.82700
H1920       H  0.44204857  0.40544262  0.53591127     0.13100
C1921       C  0.47070883  0.47441035  0.52327803     0.02400
N1922       N  0.47083944  0.46647626  0.49417824    -0.81300
H1923       H  0.44502885  0.39300596  0.48607992     0.17900
C1924       C  0.50977281  0.50360931  0.52141387    -0.26100
C1925       C  0.52524193  0.54000292  0.52786095     0.35900
C1926       C  0.50081944  0.54732120  0.53628898    -0.20100
C1927       C  0.46153447  0.51798044  0.53798762    -0.25400
C1928       C  0.44620950  0.48169579  0.53152659     0.27300
H1929       H  0.52848602  0.49756375  0.51513855     0.13000
N1930       N  0.56575870  0.56895159  0.52611467    -0.82700
H1931       H  0.44248673  0.52343943  0.54429657     0.17900
N1932       N  0.40585391  0.45222529  0.53325303    -0.81300
H1933       H  0.57922742  0.55908348  0.51938896     0.33500
H1934       H  0.57959091  0.57258574  0.53546352     0.38000
H1935       H  0.39183114  0.46213460  0.53970748     0.33500
H1936       H  0.39220238  0.44755477  0.52382041     0.30200
H1937       H  0.46985756  0.45897920  0.48399068     0.33500
H1938       H  0.45152994  0.47699745  0.49527953     0.30200
H1939       H  0.43643483  0.32195659  0.52688489     0.38100
H1940       H  0.41737940  0.33943084  0.53807949     0.33500
C1941       C  0.73346664  0.39258032  0.80124066    -0.20200
C1942       C  0.74751396  0.37600020  0.79171502     0.36000
C1943       C  0.76961302  0.39826193  0.78065912    -0.26200
C1944       C  0.77763635  0.43665974  0.77880205     0.02400
C1945       C  0.76375475  0.45344853  0.78821676     0.27300
C1946       C  0.74172368  0.43120505  0.79934966    -0.25300
N1947       N  0.73842861  0.33619112  0.79296215    -0.82700
H1948       H  0.77975051  0.38515954  0.77328871     0.13100
C1949       C  0.79843275  0.45806486  0.76647268     0.02400
N1950       N  0.77212739  0.49299290  0.78639467    -0.81300
H1951       H  0.73140416  0.44426659  0.80666023     0.17900
C1952       C  0.77841325  0.46784203  0.75702515    -0.26100
C1953       C  0.79644464  0.48750705  0.74505891     0.35900
C1954       C  0.83570190  0.49813396  0.74247614    -0.20100
C1955       C  0.85552835  0.48772831  0.75193344    -0.25400
C1956       C  0.83724290  0.46777394  0.76392301     0.27300
H1957       H  0.74830010  0.45969245  0.75888952     0.13000
N1958       N  0.77431073  0.49580462  0.73549636    -0.82700
H1959       H  0.88556401  0.49565332  0.75009690     0.17900
N1960       N  0.85791191  0.45757974  0.77356066    -0.81300
H1961       H  0.74973497  0.46936212  0.73270497     0.33500
H1962       H  0.76472611  0.51295145  0.74029934     0.38000
H1963       H  0.88614284  0.46661654  0.77012622     0.33500
H1964       H  0.86098090  0.47317133  0.78243925     0.30200
H1965       H  0.75965666  0.50090977  0.79417157     0.33500
H1966       H  0.80237184  0.51134476  0.78718766     0.30200
H1967       H  0.76468325  0.33598844  0.79342218     0.38100
H1968       H  0.72347880  0.32116111  0.78423878     0.33500
C1969       C  0.94501992  0.54435694  0.71033731    -0.20200
C1970       C  0.95209192  0.54122335  0.69654475     0.36000
C1971       C  0.98769027  0.54463558  0.69273038    -0.26200
C1972       C  0.01609507  0.55107426  0.70241225     0.02400
C1973       C  0.00927740  0.55437312  0.71620115     0.27300
C1974       C  0.97341867  0.55046599  0.72005739    -0.25300
N1975       N  0.92299026  0.53424344  0.68649839    -0.82700
H1976       H  0.99352678  0.54254224  0.68215039     0.13100
C1977       C  0.05375428  0.55673355  0.69772779     0.02400
N1978       N  0.03927394  0.56334750  0.72610641    -0.81300
H1979       H  0.96804211  0.55337244  0.73062013     0.17900
C1980       C  0.08157531  0.59358397  0.69280942    -0.26100
C1981       C  0.11817609  0.60077087  0.68839649     0.35900
C1982       C  0.12674751  0.57016928  0.68888188    -0.20100
C1983       C  0.09816074  0.53282936  0.69331963    -0.25400
C1984       C  0.06146046  0.52568974  0.69765978     0.27300
H1985       H  0.07492443  0.61700650  0.69271225     0.13000
N1986       N  0.14715232  0.63938084  0.68402059    -0.82700
H1987       H  0.10481432  0.50942832  0.69363714     0.17900
N1988       N  0.03187097  0.48707193  0.70176994    -0.81300
H1989       H  0.13581600  0.65819216  0.68406616     0.33500
H1990       H  0.16981610  0.65047841  0.69112286     0.38000
H1991       H  0.04200948  0.46740425  0.70076229     0.33500
H1992       H  0.02640568  0.48786489  0.71205824     0.30200
H1993       H  0.02949908  0.56541351  0.73571041     0.33500
H1994       H  0.04436253  0.53993214  0.72656172     0.30200
H1995       H  0.89876634  0.50666190  0.68842782     0.38100
H1996       H  0.93296482  0.53295948  0.67683665     0.33500
C1997       C  0.48608631  0.69593199  0.68755208    -0.20200
C1998       C  0.51347942  0.73294616  0.68223273     0.36000
C1999       C  0.55102741  0.74045445  0.67878098    -0.26200
C2000       C  0.56149139  0.71178372  0.68065048     0.02400
C2001       C  0.53504212  0.67588655  0.68679538     0.27300
C2002       C  0.49784774  0.66867733  0.69045009    -0.25300
N2003       N  0.50282737  0.76235914  0.68016041    -0.82700
H2004       H  0.57188013  0.76828185  0.67428967     0.13100
C2005       C  0.59942235  0.71868981  0.67550746     0.02400
N2006       N  0.54546456  0.64625684  0.68870393    -0.81300
H2007       H  0.47705215  0.64057006  0.69471172     0.17900
C2008       C  0.62800858  0.72246999  0.68470916    -0.26100
C2009       C  0.66348732  0.72668411  0.68018615     0.35900
C2010       C  0.67019387  0.72661051  0.66611432    -0.20100
C2011       C  0.64179029  0.72383812  0.65693050    -0.25400
C2012       C  0.60626181  0.71946306  0.66149575     0.27300
H2013       H  0.62243808  0.72191579  0.69546296     0.13000
N2014       N  0.69271615  0.73124303  0.68983376    -0.82700
H2015       H  0.64667027  0.72357136  0.64615924     0.17900
N2016       N  0.57665733  0.71477664  0.65199386    -0.81300
H2017       H  0.68296458  0.73027501  0.69972642     0.33500
H2018       H  0.71696460  0.75917431  0.68845770     0.38000
H2019       H  0.58626371  0.71604995  0.64206212     0.33500
H2020       H  0.55257621  0.68671146  0.65333765     0.30200
H2021       H  0.52275167  0.62158179  0.69339774     0.33500
H2022       H  0.54896897  0.63731103  0.67912429     0.30200
H2023       H  0.49680506  0.76971407  0.68964674     0.38100
H2024       H  0.52632811  0.78787522  0.67618024     0.33500
C2025       C  0.87624162  0.85718152  0.57059925    -0.20200
C2026       C  0.89574880  0.85669203  0.58249560     0.36000
C2027       C  0.87370087  0.83644792  0.59395268    -0.26200
C2028       C  0.83266722  0.81671049  0.59370101     0.02400
C2029       C  0.81326733  0.81695866  0.58175468     0.27300
C2030       C  0.83528239  0.83766920  0.57038608    -0.25300
N2031       N  0.93772864  0.87742109  0.58298245    -0.82700
H2032       H  0.88851457  0.83645776  0.60318927     0.13100
C2033       C  0.81042659  0.79623544  0.60607184     0.02400
N2034       N  0.77131072  0.79578746  0.58118436    -0.81300
H2035       H  0.82042810  0.83809504  0.56121364     0.17900
C2036       C  0.78569862  0.80765699  0.61209025    -0.26100
C2037       C  0.76580422  0.79041978  0.62422690     0.35900
C2038       C  0.77051604  0.76074493  0.63041130    -0.20100
C2039       C  0.79453834  0.74872620  0.62408394    -0.25400
C2040       C  0.81440415  0.76605495  0.61201199     0.27300
H2041       H  0.78281448  0.83095746  0.60747740     0.13000
N2042       N  0.74188076  0.80382217  0.63040711    -0.82700
H2043       H  0.79801095  0.72565380  0.62858013     0.17900
N2044       N  0.83863575  0.75314503  0.60574035    -0.81300
H2045       H  0.74080603  0.82499984  0.62436379     0.33500
H2046       H  0.75542209  0.81770461  0.63945737     0.38000
H2047       H  0.83866358  0.73082358  0.61142445     0.33500
H2048       H  0.82617433  0.74100968  0.59637146     0.30200
H2049       H  0.76163104  0.79896960  0.57166886     0.33500
H2050       H  0.76196676  0.76606770  0.58231563     0.30200
H2051       H  0.94748333  0.90723384  0.58185106     0.38100
H2052       H  0.94745969  0.87408309  0.59247033     0.33500
C2053       C  0.77027897  0.68887933  0.67089919    -0.20200
C2054       C  0.80997566  0.69961493  0.66952718     0.36000
C2055       C  0.82358501  0.67723855  0.67602286    -0.26200
C2056       C  0.79852930  0.64470159  0.68388360     0.02400
C2057       C  0.75918332  0.63432493  0.68550953     0.27300
C2058       C  0.74550661  0.65678151  0.67909360    -0.25300
N2059       N  0.83641691  0.73333434  0.66168295    -0.82700
H2060       H  0.85399737  0.68537139  0.67507979     0.13100
C2061       C  0.81441874  0.62265506  0.69077094     0.02400
N2062       N  0.73323888  0.60066588  0.69347362    -0.81300
H2063       H  0.71505414  0.64836273  0.68013915     0.17900
C2064       C  0.81485563  0.62218719  0.70491903    -0.26100
C2065       C  0.83060416  0.60259899  0.71189842     0.35900
C2066       C  0.84592700  0.58280267  0.70462491    -0.20100
C2067       C  0.84608950  0.58374162  0.69042910    -0.25400
C2068       C  0.83018059  0.60339703  0.68339466     0.27300
H2069       H  0.80343975  0.63765862  0.71057420     0.13000
N2070       N  0.83213593  0.60393708  0.72638688    -0.82700
H2071       H  0.85787912  0.56849039  0.68485286     0.17900
N2072       N  0.82965257  0.60371961  0.66884706    -0.81300
H2073       H  0.84810161  0.63325974  0.72933310     0.33500
H2074       H  0.80363861  0.59218823  0.73002027     0.38000
H2075       H  0.84245625  0.58827593  0.66497378     0.33500
H2076       H  0.80043403  0.58876177  0.66575681     0.30200
H2077       H  0.70524196  0.59707494  0.69367031     0.33500
H2078       H  0.73068805  0.57600091  0.68865630     0.30200
H2079       H  0.83898449  0.75798115  0.66651727     0.38100
H2080       H  0.86434748  0.73674546  0.66159036     0.33500
C2081       C  0.45993525  0.18769369  0.85809413    -0.20200
C2082       C  0.43101304  0.16939945  0.84800968     0.36000
C2083       C  0.39294768  0.14023085  0.85179382    -0.26200
C2084       C  0.38352935  0.12922303  0.86540757     0.02400
C2085       C  0.41211770  0.14801768  0.87547653     0.27300
C2086       C  0.44986523  0.17710726  0.87173435    -0.25300
N2087       N  0.44027807  0.18052288  0.83405957    -0.82700
H2088       H  0.37067829  0.12560603  0.84411714     0.13100
C2089       C  0.34434175  0.09641915  0.86902849     0.02400
N2090       N  0.40292429  0.13667825  0.88942960    -0.81300
H2091       H  0.47196576  0.19080857  0.87953029     0.17900
C2092       C  0.33933485  0.05897703  0.87068645    -0.26100
C2093       C  0.30292140  0.02704219  0.87438547     0.35900
C2094       C  0.27101859  0.03284214  0.87650797    -0.20100
C2095       C  0.27625539  0.07050855  0.87514923    -0.25400
C2096       C  0.31267216  0.10241555  0.87132908     0.27300
H2097       H  0.36402058  0.05476940  0.86911711     0.13000
N2098       N  0.29829434  0.98885967  0.87617368    -0.82700
H2099       H  0.25168318  0.07483459  0.87681761     0.17900
N2100       N  0.31757421  0.14071886  0.86962959    -0.81300
H2101       H  0.32453983  0.98955202  0.87420803     0.33500
H2102       H  0.29178113  0.98117597  0.88636490     0.38000
H2103       H  0.29131224  0.14006504  0.87152392     0.33500
H2104       H  0.33744606  0.15896166  0.87695240     0.30200
H2105       H  0.42746504  0.15277602  0.89556045     0.33500
H2106       H  0.38210689  0.14390357  0.89246666     0.30200
H2107       H  0.44742078  0.20972591  0.83316457     0.38100
H2108       H  0.41575415  0.16420330  0.82794829     0.33500
C2109       C  0.15756518  0.97038423  0.90684881    -0.20200
C2110       C  0.11680359  0.95500621  0.90756771     0.36000
C2111       C  0.09977336  0.95463182  0.92006781    -0.26200
C2112       C  0.12265186  0.96878491  0.93178490     0.02400
C2113       C  0.16311734  0.98306919  0.93116908     0.27300
C2114       C  0.18028348  0.98440144  0.91863433    -0.25300
N2115       N  0.09300377  0.94018046  0.89562861    -0.82700
H2116       H  0.06858866  0.94330775  0.92071095     0.13100
C2117       C  0.10375275  0.96813240  0.94468907     0.02400
N2118       N  0.18623626  0.99442907  0.94333954    -0.81300
H2119       H  0.21139243  0.99522623  0.91812936     0.17900
C2120       C  0.08456080  0.93326212  0.95210665    -0.26100
C2121       C  0.06626333  0.93142463  0.96447527     0.35900
C2122       C  0.06742791  0.96551746  0.96951333    -0.20100
C2123       C  0.08671468  0.00035484  0.96189725    -0.25400
C2124       C  0.10438518  0.00185941  0.94947041     0.27300
H2125       H  0.08396792  0.90740567  0.94820945     0.13000
N2126       N  0.04663544  0.89511868  0.97183734    -0.82700
H2127       H  0.08715427  0.02644423  0.96543699     0.17900
N2128       N  0.12136131  0.03695272  0.94139993    -0.81300
H2129       H  0.04740617  0.87280234  0.96646682     0.33500
H2130       H  0.06220757  0.89883874  0.98079981     0.38000
H2131       H  0.11813043  0.05869918  0.94616483     0.33500
H2132       H  0.15135365  0.04774463  0.94068896     0.30200
H2133       H  0.21524890  0.00291460  0.94116336     0.33500
H2134       H  0.18663779  0.01903106  0.94730739     0.30200
H2135       H  0.10145498  0.96364413  0.88895354     0.38100
H2136       H  0.06362862  0.92965160  0.89794228     0.33500
C2137       C  0.99119544  0.58182234  0.82297533    -0.20200
C2138       C  0.98719784  0.54448377  0.82137805     0.36000
C2139       C  0.95324048  0.51126388  0.82609648    -0.26200
C2140       C  0.92369035  0.51469233  0.83255374     0.02400
C2141       C  0.92750570  0.55177011  0.83415687     0.27300
C2142       C  0.96130570  0.58499536  0.82940484    -0.25300
N2143       N  0.01789632  0.54043148  0.81531762    -0.82700
H2144       H  0.94992921  0.48253000  0.82491272     0.13100
C2145       C  0.88826838  0.47896706  0.83721420     0.02400
N2146       N  0.89687945  0.55540852  0.84049403    -0.81300
H2147       H  0.96412051  0.61351093  0.83060203     0.17900
C2148       C  0.88034415  0.47241877  0.85111551    -0.26100
C2149       C  0.84614227  0.43922376  0.85580043     0.35900
C2150       C  0.81959466  0.41219309  0.84632819    -0.20100
C2151       C  0.82841059  0.41860183  0.83242281    -0.25400
C2152       C  0.86212879  0.45187812  0.82777733     0.27300
H2153       H  0.90078856  0.49347591  0.85829068     0.13000
N2154       N  0.83820020  0.43309237  0.87005593    -0.82700
H2155       H  0.80785774  0.39864812  0.82502287     0.17900
N2156       N  0.86935811  0.45894876  0.81349623    -0.81300
H2157       H  0.86056401  0.45581540  0.87561202     0.33500
H2158       H  0.83825644  0.40753842  0.87273488     0.38000
H2159       H  0.84722774  0.43613927  0.80789147     0.33500
H2160       H  0.86816729  0.48408973  0.81110589     0.30200
H2161       H  0.90432508  0.58475918  0.84095217     0.33500
H2162       H  0.87211683  0.54125343  0.83432680     0.30200
H2163       H  0.04220176  0.55406249  0.82171093     0.38100
H2164       H  0.01007739  0.51097955  0.81482478     0.33500
C2165       C  0.10203805  0.65117729  0.79146950    -0.20200
C2166       C  0.14251147  0.67796064  0.78991509     0.36000
C2167       C  0.16184768  0.67629212  0.77823691    -0.26200
C2168       C  0.14196152  0.64782798  0.76830103     0.02400
C2169       C  0.10182255  0.62091662  0.76987060     0.27300
C2170       C  0.08227487  0.62287438  0.78139975    -0.25300
N2171       N  0.16417708  0.70582794  0.80035555    -0.82700
H2172       H  0.19289971  0.69640563  0.77707769     0.13100
C2173       C  0.16402668  0.64470139  0.75675440     0.02400
N2174       N  0.08115052  0.59173183  0.75970327    -0.81300
H2175       H  0.05132326  0.60224594  0.78247050     0.17900
C2176       C  0.16630148  0.61070063  0.75547085    -0.26100
C2177       C  0.18703747  0.60616209  0.74482691     0.35900
C2178       C  0.20706620  0.63703589  0.73539554    -0.20100
C2179       C  0.20446585  0.67108867  0.73669641    -0.25400
C2180       C  0.18280174  0.67503402  0.74719374     0.27300
H2181       H  0.15170936  0.58748621  0.76286642     0.13000
N2182       N  0.18849150  0.57068553  0.74386165    -0.82700
H2183       H  0.21900358  0.69457719  0.72939699     0.17900
N2184       N  0.17955190  0.70952073  0.74814882    -0.81300
H2185       H  0.17585346  0.55307017  0.75238937     0.33500
H2186       H  0.17088599  0.55480211  0.73568826     0.38000
H2187       H  0.19507309  0.72908462  0.74032928     0.33500
H2188       H  0.15016606  0.70097417  0.74671833     0.30200
H2189       H  0.05175231  0.57412713  0.76233422     0.33500
H2190       H  0.08187751  0.60642277  0.75080166     0.30200
H2191       H  0.16397430  0.69009386  0.80891094     0.38100
H2192       H  0.19344521  0.72341874  0.79756168     0.33500
C2193       C  0.16291718  0.89955633  0.86681595    -0.20200
C2194       C  0.18518273  0.89240910  0.85728704     0.36000
C2195       C  0.16770185  0.85756047  0.84985964    -0.26200
C2196       C  0.12827334  0.82934186  0.85162218     0.02400
C2197       C  0.10574969  0.83609589  0.86108002     0.27300
C2198       C  0.12329031  0.87101267  0.86858884    -0.25300
N2199       N  0.22579956  0.91989546  0.85524569    -0.82700
H2200       H  0.18533526  0.85222490  0.84278222     0.13100
C2201       C  0.11163942  0.79240828  0.84377892     0.02400
N2202       N  0.06516230  0.80756658  0.86297405    -0.81300
H2203       H  0.10570901  0.87595102  0.87580157     0.17900
C2204       C  0.09528079  0.75664667  0.85071910    -0.26100
C2205       C  0.08101493  0.72115578  0.84373588     0.35900
C2206       C  0.08403844  0.72159541  0.82945316    -0.20100
C2207       C  0.10048574  0.75745255  0.82252920    -0.25400
C2208       C  0.11380897  0.79279928  0.82952440     0.27300
H2209       H  0.09414463  0.75650564  0.86167584     0.13000
N2210       N  0.06515968  0.68504009  0.85118044    -0.82700
H2211       H  0.10250213  0.75783767  0.81158976     0.17900
N2212       N  0.12948390  0.82911872  0.82222932    -0.81300
H2213       H  0.06919645  0.69045096  0.86157836     0.33500
H2214       H  0.03494649  0.66984249  0.84966087     0.38000
H2215       H  0.12917937  0.82439734  0.81181500     0.33500
H2216       H  0.11093961  0.84031632  0.82389064     0.30200
H2217       H  0.05279365  0.81682976  0.87036400     0.33500
H2218       H  0.05063735  0.80563422  0.85390784     0.30200
H2219       H  0.22993194  0.92812042  0.84504699     0.38100
H2220       H  0.24159390  0.90584547  0.85734105     0.33500
C2221       C  0.53129493  0.19537828  0.30559207    -0.20200
C2222       C  0.54689904  0.18876565  0.29376659     0.36000
C2223       C  0.52150458  0.16543093  0.28347110    -0.26200
C2224       C  0.48104660  0.14872820  0.28482573     0.02400
C2225       C  0.46526016  0.15466169  0.29671934     0.27300
C2226       C  0.49067580  0.17824263  0.30700158    -0.25300
N2227       N  0.58843130  0.20650973  0.29213650    -0.82700
H2228       H  0.53324320  0.16073020  0.27423675     0.13100
C2229       C  0.45597235  0.12664462  0.27333408     0.02400
N2230       N  0.42364680  0.13625010  0.29837516    -0.81300
H2231       H  0.47881530  0.18299594  0.31619838     0.17900
C2232       C  0.44392514  0.08694300  0.27190355    -0.26100
C2233       C  0.42258019  0.06584183  0.26046486     0.35900
C2234       C  0.41349787  0.08519382  0.25027879    -0.20100
C2235       C  0.42515709  0.12491092  0.25197108    -0.25400
C2236       C  0.44655296  0.14588966  0.26333391     0.27300
H2237       H  0.45161589  0.07259190  0.27967185     0.13000
N2238       N  0.41010484  0.02502691  0.25920978    -0.82700
H2239       H  0.41863467  0.14012193  0.24418400     0.17900
N2240       N  0.46021409  0.18703873  0.26449181    -0.81300
H2241       H  0.41958414  0.01551892  0.26750703     0.33500
H2242       H  0.37957930  0.00943974  0.25948623     0.38000
H2243       H  0.45170839  0.19700600  0.25606110     0.33500
H2244       H  0.44655426  0.19104811  0.27285151     0.30200
H2245       H  0.41689965  0.14300432  0.30784211     0.33500
H2246       H  0.41310582  0.14802542  0.29116836     0.30200
H2247       H  0.60023929  0.23682886  0.29185706     0.38100
H2248       H  0.59502589  0.19866775  0.28284395     0.33500
C2249       C  0.38411234  0.98885006  0.21375972    -0.20200
C2250       C  0.38827385  0.98628510  0.19968246     0.36000
C2251       C  0.38960593  0.95414813  0.19431011    -0.26200
C2252       C  0.38652685  0.92408851  0.20273054     0.02400
C2253       C  0.38323518  0.92700065  0.21686835     0.27300
C2254       C  0.38263614  0.95959158  0.22223767    -0.25300
N2255       N  0.39186364  0.01660811  0.19081061    -0.82700
H2256       H  0.39271208  0.95248638  0.18347964     0.13100
C2257       C  0.38496489  0.88882652  0.19670083     0.02400
N2258       N  0.37922380  0.89620486  0.22567805    -0.81300
H2259       H  0.37945594  0.96137188  0.23305788     0.17900
C2260       C  0.41196822  0.87788286  0.20089500    -0.26100
C2261       C  0.40818598  0.84200969  0.19692781     0.35900
C2262       C  0.37633260  0.81614821  0.18866400    -0.20100
C2263       C  0.35122165  0.82868828  0.18358712    -0.25400
C2264       C  0.35511730  0.86463379  0.18754717     0.27300
H2265       H  0.43551138  0.89701002  0.20762397     0.13000
N2266       N  0.43608118  0.83142849  0.20153353    -0.82700
H2267       H  0.32693071  0.80937677  0.17715437     0.17900
N2268       N  0.32783122  0.87583438  0.18276715    -0.81300
H2269       H  0.45738354  0.85343498  0.20762086     0.33500
H2270       H  0.45049649  0.82934509  0.19301085     0.38000
H2271       H  0.30781055  0.85498550  0.17604272     0.33500
H2272       H  0.31177307  0.87615501  0.19109005     0.30200
H2273       H  0.37744285  0.90290210  0.23578078     0.33500
H2274       H  0.35261435  0.87117121  0.22336941     0.30200
H2275       H  0.36934817  0.00403536  0.18367191     0.38100
H2276       H  0.41843486  0.02802726  0.18567356     0.33500
C2277       C  0.14833521  0.14471286  0.13791495    -0.20200
C2278       C  0.13907279  0.10568366  0.13532499     0.36000
C2279       C  0.12124506  0.08792118  0.12302700    -0.26200
C2280       C  0.11147161  0.10764206  0.11343513     0.02400
C2281       C  0.11890562  0.14564459  0.11615582     0.27300
C2282       C  0.13724931  0.16379194  0.12833669    -0.25300
N2283       N  0.14734981  0.08393421  0.14513451    -0.82700
H2284       H  0.11461781  0.05833810  0.12091173     0.13100
C2285       C  0.09377307  0.08821225  0.10048306     0.02400
N2286       N  0.10840794  0.16587322  0.10641494    -0.81300
H2287       H  0.14363789  0.19340474  0.13016184     0.17900
C2288       C  0.05551578  0.07888387  0.09746043    -0.26100
C2289       C  0.03781815  0.06065777  0.08521917     0.35900
C2290       C  0.05932485  0.05234913  0.07571692    -0.20100
C2291       C  0.09741312  0.06114020  0.07889701    -0.25400
C2292       C  0.11491882  0.07911993  0.09119538     0.27300
H2293       H  0.03932539  0.08547755  0.10477166     0.13000
N2294       N  0.99792006  0.04986843  0.08254494    -0.82700
H2295       H  0.11382737  0.05464301  0.07165520     0.17900
N2296       N  0.15420860  0.08860355  0.09425600    -0.81300
H2297       H  0.98650295  0.05826615  0.09053000     0.33500
H2298       H  0.98149152  0.01933053  0.08210008     0.38000
H2299       H  0.16562547  0.07979188  0.08639315     0.33500
H2300       H  0.17137987  0.11906563  0.09482067     0.30200
H2301       H  0.11563070  0.19355577  0.10998824     0.33500
H2302       H  0.12522806  0.17038212  0.09774201     0.30200
H2303       H  0.12889918  0.07876690  0.15338402     0.38100
H2304       H  0.14014888  0.05644102  0.14136619     0.33500
C2305       C  0.24312391  0.45317127  0.18428393    -0.20200
C2306       C  0.20460354  0.42522713  0.18046618     0.36000
C2307       C  0.19590814  0.38728276  0.17692413    -0.26200
C2308       C  0.22498637  0.37705707  0.17717604     0.02400
C2309       C  0.26318125  0.40460559  0.18130456     0.27300
C2310       C  0.27179071  0.44235547  0.18493046    -0.25300
N2311       N  0.17464880  0.43555192  0.18018597    -0.82700
H2312       H  0.16650518  0.36565033  0.17390700     0.13100
C2313       C  0.21508125  0.33703231  0.17346654     0.02400
N2314       N  0.29333904  0.39451794  0.18131500    -0.81300
H2315       H  0.30147201  0.46399931  0.18766360     0.17900
C2316       C  0.21792541  0.32825900  0.15992659    -0.26100
C2317       C  0.21150190  0.29111489  0.15629144     0.35900
C2318       C  0.20251508  0.26270499  0.16648841    -0.20100
C2319       C  0.19897987  0.27149953  0.17996193    -0.25400
C2320       C  0.20464360  0.30824349  0.18352903     0.27300
H2321       H  0.22585788  0.35066641  0.15226014     0.13000
N2322       N  0.21504639  0.28253588  0.14241496    -0.82700
H2323       H  0.19146201  0.24943713  0.18772864     0.17900
N2324       N  0.19929643  0.31632224  0.19728585    -0.81300
H2325       H  0.22153155  0.30652036  0.13621280     0.33500
H2326       H  0.23885838  0.27809656  0.14178540     0.38000
H2327       H  0.19069446  0.29166656  0.20338265     0.33500
H2328       H  0.22627425  0.33804543  0.20100237     0.30200
H2329       H  0.32003858  0.41845230  0.18428517     0.33500
H2330       H  0.28624091  0.37280250  0.18861534     0.30200
H2331       H  0.17074395  0.44209149  0.19009855     0.38100
H2332       H  0.14800173  0.41167950  0.17714238     0.33500
C2333       C  0.22896914  0.15764814  0.17793998    -0.20200
C2334       C  0.21204974  0.11732625  0.18081842     0.36000
C2335       C  0.23367775  0.10409329  0.18808356    -0.26200
C2336       C  0.27156682  0.13031085  0.19257272     0.02400
C2337       C  0.28818387  0.17063778  0.19007362     0.27300
C2338       C  0.26655876  0.18396701  0.18284742    -0.25300
N2339       N  0.17299803  0.09003306  0.17644027    -0.82700
H2340       H  0.22115596  0.07314450  0.19015916     0.13100
C2341       C  0.29391529  0.11462106  0.19939757     0.02400
N2342       N  0.32735181  0.19762068  0.19446272    -0.81300
H2343       H  0.27963439  0.21490061  0.18064234     0.17900
C2344       C  0.31564543  0.10303942  0.19152244    -0.26100
C2345       C  0.33608425  0.08639708  0.19753346     0.35900
C2346       C  0.33434625  0.08104787  0.21170546    -0.20100
C2347       C  0.31265749  0.09298236  0.21955029    -0.25400
C2348       C  0.29224738  0.10957121  0.21352001     0.27300
H2349       H  0.31662053  0.10706451  0.18064662     0.13000
N2350       N  0.35911986  0.07569864  0.18934013    -0.82700
H2351       H  0.31128057  0.08894072  0.23042852     0.17900
N2352       N  0.26912880  0.12044678  0.22160805    -0.81300
H2353       H  0.35697560  0.08128365  0.17911800     0.33500
H2354       H  0.38837195  0.09378334  0.19208221     0.38000
H2355       H  0.27038420  0.11405734  0.23181020     0.33500
H2356       H  0.28156873  0.15077759  0.22094297     0.30200
H2357       H  0.33550757  0.22615561  0.19154156     0.33500
H2358       H  0.32762696  0.19740234  0.20503400     0.30200
H2359       H  0.15407983  0.09683747  0.18151467     0.38100
H2360       H  0.16512267  0.06152060  0.17929170     0.33500
C2361       C  0.35845509  0.93791273  0.32765160    -0.20200
C2362       C  0.35785025  0.97031898  0.33337896     0.36000
C2363       C  0.39223545  0.00126155  0.33881970    -0.26200
C2364       C  0.42728606  0.00085693  0.33857447     0.02400
C2365       C  0.42793818  0.96810251  0.33335029     0.27300
C2366       C  0.39345787  0.93696821  0.32783877    -0.25300
N2367       N  0.32279953  0.97258475  0.33315802    -0.82700
H2368       H  0.39216950  0.02675374  0.34276474     0.13100
C2369       C  0.46338813  0.03735736  0.34223649     0.02400
N2370       N  0.46326264  0.96630734  0.33387073    -0.81300
H2371       H  0.39385269  0.91184793  0.32370691     0.17900
C2372       C  0.47316424  0.04704602  0.35591062    -0.26100
C2373       C  0.50331663  0.08466540  0.35966599     0.35900
C2374       C  0.52378520  0.11275680  0.34949434    -0.20100
C2375       C  0.51455239  0.10232698  0.33583134    -0.25400
C2376       C  0.48429995  0.06522067  0.33210666     0.27300
H2377       H  0.45635464  0.02565782  0.36364185     0.13000
N2378       N  0.51281535  0.09455161  0.37368063    -0.82700
H2379       H  0.52966218  0.12398767  0.32798467     0.17900
N2380       N  0.47282865  0.05666152  0.31813622    -0.81300
H2381       H  0.49492135  0.07063332  0.37985631     0.33500
H2382       H  0.54141865  0.10049664  0.37518672     0.38000
H2383       H  0.48978259  0.08109647  0.31203209     0.33500
H2384       H  0.47861774  0.03494874  0.31497599     0.30200
H2385       H  0.45853573  0.93986189  0.32985145     0.33500
H2386       H  0.48402348  0.98843159  0.32768917     0.30200
H2387       H  0.31628381  0.97468121  0.32303804     0.38100
H2388       H  0.32721159  0.99803288  0.33793624     0.33500
C2389       C  0.29505213  0.83619905  0.29230459    -0.20200
C2390       C  0.26224143  0.81327641  0.28389625     0.36000
C2391       C  0.26563966  0.79220799  0.27308508    -0.26200
C2392       C  0.30100097  0.79374241  0.27029344     0.02400
C2393       C  0.33391545  0.81700674  0.27844032     0.27300
C2394       C  0.33068612  0.83815705  0.28928865    -0.25300
N2395       N  0.22566521  0.81169981  0.28619197    -0.82700
H2396       H  0.24060845  0.77476418  0.26664859     0.13100
C2397       C  0.30300605  0.77119396  0.25863635     0.02400
N2398       N  0.37027926  0.81847574  0.27580613    -0.81300
H2399       H  0.35597656  0.85547238  0.29562037     0.17900
C2400       C  0.32843392  0.79116694  0.24787547    -0.26100
C2401       C  0.32989480  0.77095784  0.23642114     0.35900
C2402       C  0.30541303  0.72991531  0.23573880    -0.20100
C2403       C  0.27979171  0.71001314  0.24646060    -0.25400
C2404       C  0.27869555  0.73016873  0.25798416     0.27300
H2405       H  0.34668280  0.82272102  0.24832601     0.13000
N2406       N  0.35557029  0.79198112  0.22537407    -0.82700
H2407       H  0.26130301  0.67848855  0.24599060     0.17900
N2408       N  0.25339767  0.70914799  0.26911629    -0.81300
H2409       H  0.37249966  0.82173744  0.22763088     0.33500
H2410       H  0.33816649  0.78962911  0.21705058     0.38000
H2411       H  0.23743638  0.67918322  0.26704611     0.33500
H2412       H  0.27108550  0.71256027  0.27747148     0.30200
H2413       H  0.39169267  0.83699542  0.28268665     0.33500
H2414       H  0.36590097  0.79043482  0.27746489     0.30200
H2415       H  0.20445660  0.79282952  0.27931813     0.38100
H2416       H  0.22999902  0.83961265  0.28427410     0.33500
C2417       C  0.96321945  0.77075010  0.40404818    -0.20200
C2418       C  0.93009145  0.77219102  0.40851431     0.36000
C2419       C  0.93158901  0.79000767  0.42095779    -0.26200
C2420       C  0.96538876  0.80633710  0.42893856     0.02400
C2421       C  0.99812541  0.80424819  0.42469242     0.27300
C2422       C  0.99680624  0.78664622  0.41223973    -0.25300
N2423       N  0.89550021  0.75656659  0.40028034    -0.82700
H2424       H  0.90657551  0.79179929  0.42436750     0.13100
C2425       C  0.96651171  0.82649684  0.44159746     0.02400
N2426       N  0.03235228  0.81967826  0.43311492    -0.81300
H2427       H  0.02208199  0.78518772  0.40893333     0.17900
C2428       C  0.95468270  0.80513821  0.45371254    -0.26100
C2429       C  0.95556241  0.82353934  0.46594205     0.35900
C2430       C  0.96899784  0.86395771  0.46594677    -0.20100
C2431       C  0.98081973  0.88532456  0.45384451    -0.25400
C2432       C  0.97936074  0.86682214  0.44158434     0.27300
H2433       H  0.94469862  0.77411970  0.45358599     0.13000
N2434       N  0.94287679  0.80152378  0.47834685    -0.82700
H2435       H  0.99044026  0.91627797  0.45394783     0.17900
N2436       N  0.99004739  0.88849754  0.42909445    -0.81300
H2437       H  0.93365190  0.77207778  0.47660117     0.33500
H2438       H  0.96703201  0.81218385  0.48480647     0.38000
H2439       H  0.99799860  0.91764285  0.43081693     0.33500
H2440       H  0.01488004  0.88890099  0.42535658     0.30200
H2441       H  0.05363073  0.81518423  0.42863365     0.33500
H2442       H  0.04426135  0.84994516  0.43374361     0.30200
H2443       H  0.90268219  0.77340245  0.39144556     0.38100
H2444       H  0.87377439  0.75963993  0.40511748     0.33500
C2445       C  0.89685059  0.67022697  0.36874631    -0.20200
C2446       C  0.89907014  0.64622373  0.35860246     0.36000
C2447       C  0.86594318  0.61028923  0.35540775    -0.26200
C2448       C  0.83028907  0.59766800  0.36200452     0.02400
C2449       C  0.82721415  0.62250975  0.37150343     0.27300
C2450       C  0.86049797  0.65832962  0.37483108    -0.25300
N2451       N  0.93511153  0.65719554  0.35185542    -0.82700
H2452       H  0.86866272  0.59130626  0.34816322     0.13100
C2453       C  0.79802626  0.55676190  0.36005581     0.02400
N2454       N  0.79041846  0.61083737  0.37792175    -0.81300
H2455       H  0.85804774  0.67672354  0.38239175     0.17900
C2456       C  0.78310684  0.53254755  0.37147386    -0.26100
C2457       C  0.75509721  0.49291227  0.37022684     0.35900
C2458       C  0.74157373  0.47668639  0.35728217    -0.20100
C2459       C  0.75633669  0.50082494  0.34580698    -0.25400
C2460       C  0.78419484  0.54086946  0.34707139     0.27300
H2461       H  0.79423966  0.54419445  0.38145053     0.13000
N2462       N  0.74186087  0.46886471  0.38212485    -0.82700
H2463       H  0.74601700  0.48842757  0.33585276     0.17900
N2464       N  0.79855874  0.56538781  0.33526480    -0.81300
H2465       H  0.76610307  0.47041279  0.38695970     0.33500
H2466       H  0.72956787  0.48044091  0.38865836     0.38000
H2467       H  0.78559743  0.54915721  0.32651242     0.33500
H2468       H  0.78987039  0.58626139  0.33595456     0.30200
H2469       H  0.79310212  0.63220243  0.38473873     0.33500
H2470       H  0.77095168  0.60894593  0.37039495     0.30200
H2471       H  0.93079362  0.65834383  0.34145838     0.38100
H2472       H  0.94212841  0.63537534  0.35359081     0.33500
C2473       C  0.21565738  0.84933659  0.32804281    -0.20200
C2474       C  0.20903143  0.87201949  0.33758241     0.36000
C2475       C  0.17305722  0.85550831  0.34434388    -0.26200
C2476       C  0.14335755  0.81712004  0.34172406     0.02400
C2477       C  0.14924741  0.79481123  0.33194525     0.27300
C2478       C  0.18515675  0.81124038  0.32512746    -0.25300
N2479       N  0.23847075  0.91181204  0.34030120    -0.82700
H2480       H  0.16798288  0.87273880  0.35168750     0.13100
C2481       C  0.10631751  0.80079002  0.34938985     0.02400
N2482       N  0.11910855  0.75523730  0.32923919    -0.81300
H2483       H  0.18968803  0.79356280  0.31782873     0.17900
C2484       C  0.07118672  0.78829292  0.34238948    -0.26100
C2485       C  0.03575272  0.77337167  0.34937053     0.35900
C2486       C  0.03536600  0.77119904  0.36362077    -0.20100
C2487       C  0.07060937  0.78414844  0.37063113    -0.25400
C2488       C  0.10603887  0.79836246  0.36364214     0.27300
H2489       H  0.07133206  0.79046612  0.33145049     0.13000
N2490       N  0.00038442  0.76137649  0.34196654    -0.82700
H2491       H  0.07034483  0.78211290  0.38157370     0.17900
N2492       N  0.14165110  0.80974285  0.37091345    -0.81300
H2493       H  0.00379900  0.78527534  0.33630745     0.33500
H2494       H  0.99649968  0.73940038  0.33522124     0.38000
H2495       H  0.13644009  0.80617161  0.38133148     0.33500
H2496       H  0.15137357  0.79062268  0.36811855     0.30200
H2497       H  0.12800891  0.74285270  0.32173391     0.33500
H2498       H  0.11501728  0.73891367  0.33805286     0.30200
H2499       H  0.24173227  0.92793513  0.33150511     0.38100
H2500       H  0.22932154  0.92380051  0.34786864     0.33500
C2501       C  0.26036225  0.32879706  0.04465214    -0.20200
C2502       C  0.26075737  0.29439811  0.04124038     0.36000
C2503       C  0.22624075  0.26163198  0.03660071    -0.26200
C2504       C  0.19129419  0.26235252  0.03553662     0.02400
C2505       C  0.19078867  0.29656547  0.03904826     0.27300
C2506       C  0.22531169  0.32940034  0.04363084    -0.25300
N2507       N  0.29576209  0.29241814  0.04291788    -0.82700
H2508       H  0.22623636  0.23495204  0.03416394     0.13100
C2509       C  0.15505040  0.22599340  0.03164131     0.02400
N2510       N  0.15525418  0.29777947  0.03791435    -0.81300
H2511       H  0.22499593  0.35579712  0.04626195     0.17900
C2512       C  0.12497920  0.20759905  0.04113542    -0.26100
C2513       C  0.09239378  0.17046080  0.03864826     0.35900
C2514       C  0.09009991  0.15088786  0.02633761    -0.20100
C2515       C  0.11936901  0.17079500  0.01652024    -0.25400
C2516       C  0.15166687  0.20810058  0.01904061     0.27300
H2517       H  0.12769320  0.22175112  0.05077279     0.13000
N2518       N  0.06275634  0.15218997  0.04886953    -0.82700
H2519       H  0.11777910  0.15677962  0.00695630     0.17900
N2520       N  0.18155365  0.22759865  0.00898420    -0.81300
H2521       H  0.07033077  0.16949840  0.05756687     0.33500
H2522       H  0.03739414  0.15074830  0.04509346     0.38000
H2523       H  0.17491180  0.21043631  0.00028019     0.33500
H2524       H  0.18157790  0.25308859  0.00614507     0.30200
H2525       H  0.15977171  0.32503178  0.04096053     0.33500
H2526       H  0.14763404  0.29483265  0.02766983     0.30200
H2527       H  0.30234518  0.29512187  0.05325331     0.38100
H2528       H  0.29104302  0.26500321  0.03998983     0.33500
C2529       C  0.32272638  0.44126860  0.07564596    -0.20200
C2530       C  0.29312804  0.42332497  0.08558731     0.36000
C2531       C  0.29288941  0.44538885  0.09664707    -0.26200
C2532       C  0.32139623  0.48492763  0.09809523     0.02400
C2533       C  0.35060064  0.50311060  0.08812612     0.27300
C2534       C  0.35108596  0.48107668  0.07706465    -0.25300
N2535       N  0.26402174  0.38253783  0.08470574    -0.82700
H2536       H  0.27085345  0.43133464  0.10442407     0.13100
C2537       C  0.32087051  0.50631193  0.11037782     0.02400
N2538       N  0.37956420  0.54387548  0.08926767    -0.81300
H2539       H  0.37367248  0.49520422  0.06947003     0.17900
C2540       C  0.35385339  0.52393955  0.11881165    -0.26100
C2541       C  0.35400854  0.54292942  0.13084261     0.35900
C2542       C  0.32043294  0.54478999  0.13446597    -0.20100
C2543       C  0.28730162  0.52668120  0.12602930    -0.25400
C2544       C  0.28720601  0.50764545  0.11404507     0.27300
H2545       H  0.37934749  0.52206019  0.11613599     0.13000
N2546       N  0.38783998  0.55949323  0.13947874    -0.82700
H2547       H  0.26143007  0.52792218  0.12865021     0.17900
N2548       N  0.25314116  0.48992055  0.10551745    -0.81300
H2549       H  0.41007894  0.55609462  0.13523282     0.33500
H2550       H  0.37986181  0.54348908  0.14851147     0.38000
H2551       H  0.23072786  0.49314616  0.10969904     0.33500
H2552       H  0.26061836  0.50510390  0.09632044     0.30200
H2553       H  0.39907290  0.55276245  0.08114614     0.33500
H2554       H  0.36515161  0.55983729  0.08858703     0.30200
H2555       H  0.27820857  0.36651848  0.08601781     0.38100
H2556       H  0.24387186  0.37436516  0.09260439     0.33500
C2557       C  0.65292517  0.48751193  0.96677231    -0.20200
C2558       C  0.67996306  0.50630568  0.95612536     0.36000
C2559       C  0.67805984  0.48479030  0.94452003    -0.26200
C2560       C  0.64977518  0.44508497  0.94332306     0.02400
C2561       C  0.62355200  0.42601971  0.95403727     0.27300
C2562       C  0.62521696  0.44743145  0.96559475    -0.25300
N2563       N  0.70856116  0.54725366  0.95693521    -0.82700
H2564       H  0.69820114  0.49917943  0.93623413     0.13100
C2565       C  0.64680024  0.42407663  0.93056559     0.02400
N2566       N  0.59556297  0.38489711  0.95316972    -0.81300
H2567       H  0.60479228  0.43261182  0.97376925     0.17900
C2568       C  0.66765616  0.40436746  0.92920869    -0.26100
C2569       C  0.66526787  0.38403365  0.91725131     0.35900
C2570       C  0.64123095  0.38319592  0.90647203    -0.20100
C2571       C  0.61996576  0.40254604  0.90794451    -0.25400
C2572       C  0.62288714  0.42338060  0.91984771     0.27300
H2573       H  0.68589192  0.40495712  0.93750318     0.13000
N2574       N  0.68708033  0.36413537  0.91601327    -0.82700
H2575       H  0.60195814  0.40234677  0.89963960     0.17900
N2576       N  0.60245900  0.44466283  0.92100056    -0.81300
H2577       H  0.70343800  0.36775313  0.92476754     0.33500
H2578       H  0.66706377  0.33420325  0.91518055     0.38000
H2579       H  0.58676496  0.44188720  0.91214834     0.33500
H2580       H  0.58192100  0.43182247  0.92875573     0.30200
H2581       H  0.57883187  0.37512218  0.96199985     0.33500
H2582       H  0.57623288  0.38084408  0.94529393     0.30200
H2583       H  0.69358687  0.56272181  0.95685197     0.38100
H2584       H  0.72649141  0.55629645  0.94837831     0.33500
C2585       C  0.72086933  0.59396956  0.00026730    -0.20200
C2586       C  0.72706304  0.60403313  0.01413583     0.36000
C2587       C  0.75850923  0.64055635  0.01800209    -0.26200
C2588       C  0.78361482  0.66747731  0.00833156     0.02400
C2589       C  0.77849547  0.65673741  0.99453293     0.27300
C2590       C  0.74756078  0.61985046  0.99068723    -0.25300
N2591       N  0.70129403  0.57731147  0.02423642    -0.82700
H2592       H  0.76306265  0.64845262  0.02861382     0.13100
C2593       C  0.81382452  0.70743851  0.01270710     0.02400
N2594       N  0.80374968  0.68387681  0.98442158    -0.81300
H2595       H  0.74300176  0.61222696  0.98005441     0.17900
C2596       C  0.85299598  0.72216380  0.00906744    -0.26100
C2597       C  0.88175405  0.76089248  0.01206334     0.35900
C2598       C  0.87103339  0.78548132  0.01886625    -0.20100
C2599       C  0.83225713  0.76992811  0.02320240    -0.25400
C2600       C  0.80349583  0.73138638  0.02008613     0.27300
H2601       H  0.86103951  0.70343784  0.00370306     0.13000
N2602       N  0.92164534  0.77532789  0.00813594    -0.82700
H2603       H  0.82377929  0.78853953  0.02841602     0.17900
N2604       N  0.76356848  0.71698378  0.02395675    -0.81300
H2605       H  0.92447526  0.75366680  0.00312350     0.33500
H2606       H  0.93830392  0.78186713  0.01698469     0.38000
H2607       H  0.76095393  0.73812844  0.02941905     0.33500
H2608       H  0.74723912  0.71191556  0.01509537     0.30200
H2609       H  0.79617936  0.67138834  0.97478548     0.33500
H2610       H  0.79922048  0.70771909  0.98436286     0.30200
H2611       H  0.70429647  0.55254367  0.02406731     0.38100
H2612       H  0.70966070  0.58938022  0.03390865     0.33500
C2613       C  0.40101686  0.42473960  0.04051583    -0.20200
C2614       C  0.41452413  0.39952538  0.03631722     0.36000
C2615       C  0.45043121  0.41523885  0.02946302    -0.26200
C2616       C  0.47277483  0.45543902  0.02675405     0.02400
C2617       C  0.45935059  0.48056735  0.03091089     0.27300
C2618       C  0.42374333  0.46500880  0.03785769    -0.25300
N2619       N  0.39208953  0.35831817  0.03917756    -0.82700
H2620       H  0.46108660  0.39617851  0.02620920     0.13100
C2621       C  0.51000545  0.47099500  0.01933991     0.02400
N2622       N  0.48153750  0.52162168  0.02776772    -0.81300
H2623       H  0.41325617  0.48431983  0.04097224     0.17900
C2624       C  0.50989302  0.47396960  0.00521404    -0.26100
C2625       C  0.54478690  0.48922942  0.99779820     0.35900
C2626       C  0.58025844  0.50100100  0.00469650    -0.20100
C2627       C  0.58035978  0.49894040  0.01888661    -0.25400
C2628       C  0.54548474  0.48394272  0.02629211     0.27300
H2629       H  0.48250682  0.46466964  0.00000143     0.13000
N2630       N  0.54447119  0.49360326  0.98335654    -0.82700
H2631       H  0.60763244  0.50829597  0.02418451     0.17900
N2632       N  0.54579115  0.48112192  0.04079873    -0.81300
H2633       H  0.51604813  0.48361732  0.97988127     0.33500
H2634       H  0.56045885  0.52353937  0.98118265     0.38000
H2635       H  0.57422152  0.49144343  0.04432848     0.33500
H2636       H  0.53673753  0.49965914  0.04480272     0.30200
H2637       H  0.46718781  0.53594711  0.03128000     0.33500
H2638       H  0.50796873  0.53354551  0.03303656     0.30200
H2639       H  0.39106748  0.35485093  0.04969065     0.38100
H2640       H  0.40608458  0.34395277  0.03536832     0.33500
C2641       C  0.11001436  0.42472681  0.57655591    -0.20200
C2642       C  0.09222634  0.44010702  0.58497175     0.36000
C2643       C  0.11219995  0.46179408  0.59647945    -0.26200
C2644       C  0.14951650  0.46846385  0.59970006     0.02400
C2645       C  0.16651596  0.45158069  0.59167622     0.27300
C2646       C  0.14641811  0.42958690  0.58021743    -0.25300
N2647       N  0.05394116  0.43353812  0.58181991    -0.82700
H2648       H  0.09889614  0.47398314  0.60290514     0.13100
C2649       C  0.17021070  0.49267427  0.61166270     0.02400
N2650       N  0.20441348  0.45750661  0.59506873    -0.81300
H2651       H  0.15994419  0.41760650  0.57380551     0.17900
C2652       C  0.17610840  0.47419620  0.62277899    -0.26100
C2653       C  0.19538899  0.49524805  0.63444701     0.35900
C2654       C  0.20948998  0.53596000  0.63498124    -0.20100
C2655       C  0.20280296  0.55433216  0.62398307    -0.25400
C2656       C  0.18379686  0.53338311  0.61224788     0.27300
H2657       H  0.16530873  0.44302227  0.62236064     0.13000
N2658       N  0.20020995  0.47529688  0.64583520    -0.82700
H2659       H  0.21366090  0.58552683  0.62430297     0.17900
N2660       N  0.17969136  0.55462488  0.60112520    -0.81300
H2661       H  0.18846866  0.44554865  0.64376791     0.33500
H2662       H  0.18400973  0.47702163  0.65385937     0.38000
H2663       H  0.20776613  0.57582806  0.59805985     0.33500
H2664       H  0.16671773  0.53683144  0.59272254     0.30200
H2665       H  0.21271300  0.44303305  0.58818397     0.33500
H2666       H  0.22456088  0.48737458  0.59406330     0.30200
H2667       H  0.03437803  0.40345100  0.58253481     0.38100
H2668       H  0.04514700  0.44687573  0.58900176     0.33500
C2669       C  0.03850926  0.13178480  0.52326068    -0.20200
C2670       C  0.07512565  0.15806380  0.52911188     0.36000
C2671       C  0.08370641  0.19605767  0.53254976    -0.26200
C2672       C  0.05637260  0.20811443  0.53036402     0.02400
C2673       C  0.01998592  0.18203497  0.52443541     0.27300
C2674       C  0.01168045  0.14438137  0.52075630    -0.25300
N2675       N  0.10331066  0.14604553  0.53160000    -0.82700
H2676       H  0.11167783  0.21630978  0.53705759     0.13100
C2677       C  0.06558286  0.24779833  0.53459335     0.02400
N2678       N  0.99115272  0.19352450  0.52258384    -0.81300
H2679       H  0.98328767  0.12410312  0.51652618     0.17900
C2680       C  0.06651300  0.27394026  0.52481196    -0.26100
C2681       C  0.07202992  0.31064473  0.52848281     0.35900
C2682       C  0.07634067  0.32130854  0.54233260    -0.20100
C2683       C  0.07714009  0.29566277  0.55203944    -0.25400
C2684       C  0.07149481  0.25890551  0.54831873     0.27300
H2685       H  0.06247778  0.26539231  0.51425796     0.13000
N2686       N  0.07317970  0.33695522  0.51817609    -0.82700
H2687       H  0.08045965  0.30352609  0.56264771     0.17900
N2688       N  0.07028504  0.23220340  0.55846109    -0.81300
H2689       H  0.06897990  0.32435610  0.50858528     0.33500
H2690       H  0.10126524  0.36150119  0.51820969     0.38000
H2691       H  0.07519916  0.24478332  0.56807597     0.33500
H2692       H  0.04193347  0.20809683  0.55853074     0.30200
H2693       H  0.96589412  0.17093119  0.51813391     0.33500
H2694       H  0.98308102  0.19804857  0.53217596     0.30200
H2695       H  0.11161209  0.14039531  0.52222870     0.38100
H2696       H  0.12855397  0.16872704  0.53602567     0.33500
C2697       C  0.89436844  0.76743539  0.51566801    -0.20200
C2698       C  0.86846105  0.74344610  0.50536445     0.36000
C2699       C  0.86361394  0.70615609  0.50302557    -0.26200
C2700       C  0.88261315  0.69147022  0.51109030     0.02400
C2701       C  0.90572127  0.71399398  0.52206956     0.27300
C2702       C  0.91172414  0.75167205  0.52411369    -0.25300
N2703       N  0.84765426  0.75703194  0.49715522    -0.82700
H2704       H  0.84573854  0.68890823  0.49460813     0.13100
C2705       C  0.88045136  0.65389098  0.50742604     0.02400
N2706       N  0.92361389  0.69873502  0.53099169    -0.81300
H2707       H  0.93108039  0.76913013  0.53221078     0.17900
C2708       C  0.91535884  0.65309383  0.50622412    -0.26100
C2709       C  0.91527293  0.61880730  0.50260627     0.35900
C2710       C  0.87948485  0.58468894  0.49963474    -0.20100
C2711       C  0.84453006  0.58539854  0.50070722    -0.25400
C2712       C  0.84454885  0.61941947  0.50482350     0.27300
H2713       H  0.94302227  0.67965366  0.50790983     0.13000
N2714       N  0.95151047  0.61889628  0.50160766    -0.82700
H2715       H  0.81704880  0.55908407  0.49853201     0.17900
N2716       N  0.80831125  0.61897357  0.50648233    -0.81300
H2717       H  0.97504183  0.64613613  0.50435827     0.33500
H2718       H  0.95560024  0.61467974  0.49144063     0.38000
H2719       H  0.78463862  0.59139339  0.50415208     0.33500
H2720       H  0.80570552  0.62383989  0.51671903     0.30200
H2721       H  0.94012821  0.71911922  0.53845945     0.33500
H2722       H  0.90119954  0.67449117  0.53597823     0.30200
H2723       H  0.82836449  0.76019734  0.50350302     0.38100
H2724       H  0.83042838  0.73606895  0.48994106     0.33500
C2725       C  0.83030412  0.47438326  0.46775759    -0.20200
C2726       C  0.81965047  0.43513399  0.46498842     0.36000
C2727       C  0.79968772  0.41754413  0.45293915    -0.26200
C2728       C  0.79022981  0.43820630  0.44358234     0.02400
C2729       C  0.80036865  0.47711574  0.44639858     0.27300
C2730       C  0.81988031  0.49461332  0.45850562    -0.25300
N2731       N  0.82884980  0.41313733  0.47440472    -0.82700
H2732       H  0.79122503  0.38742883  0.45084598     0.13100
C2733       C  0.76930151  0.41865754  0.43092953     0.02400
N2734       N  0.79154009  0.49897824  0.43680071    -0.81300
H2735       H  0.82817811  0.52473448  0.46047656     0.17900
C2736       C  0.73379605  0.41670867  0.42793739    -0.26100
C2737       C  0.71327801  0.39908607  0.41602978     0.35900
C2738       C  0.72808800  0.38230585  0.40689078    -0.20100
C2739       C  0.76361090  0.38402551  0.40998372    -0.25400
C2740       C  0.78449285  0.40226192  0.42184468     0.27300
H2741       H  0.72174254  0.42883033  0.43495631     0.13000
N2742       N  0.67701606  0.39771738  0.41346243    -0.82700
H2743       H  0.77546142  0.37153329  0.40304620     0.17900
N2744       N  0.82121524  0.40455088  0.42463500    -0.81300
H2745       H  0.65809072  0.38307649  0.42151167     0.33500
H2746       H  0.68236782  0.42642877  0.41325081     0.38000
H2747       H  0.82821617  0.39096328  0.41697890     0.33500
H2748       H  0.84287154  0.43410334  0.42450607     0.30200
H2749       H  0.80084708  0.52714281  0.44040369     0.33500
H2750       H  0.80761167  0.50227241  0.42802690     0.30200
H2751       H  0.81295950  0.40956836  0.48324857     0.38100
H2752       H  0.81958526  0.38507048  0.47070815     0.33500
C2753       C  0.04071184  0.42222442  0.53505031    -0.20200
C2754       C  0.05524640  0.46289605  0.53432550     0.36000
C2755       C  0.03416854  0.47678680  0.52708704    -0.26200
C2756       C  0.99876740  0.45087400  0.52071419     0.02400
C2757       C  0.98492704  0.41031579  0.52104657     0.27300
C2758       C  0.00636168  0.39646642  0.52807535    -0.25300
N2759       N  0.09132669  0.48989351  0.54088867    -0.82700
H2760       H  0.04509034  0.50796704  0.52653862     0.13100
C2761       C  0.97575687  0.46650744  0.51418406     0.02400
N2762       N  0.94862582  0.38332136  0.51459730    -0.81300
H2763       H  0.99530112  0.36525758  0.52859467     0.17900
C2764       C  0.96540866  0.45837399  0.50051935    -0.26100
C2765       C  0.94238247  0.47144238  0.49412911     0.35900
C2766       C  0.92915748  0.49292239  0.50165397    -0.20100
C2767       C  0.94061735  0.50202519  0.51523278    -0.25400
C2768       C  0.96358565  0.48886225  0.52159887     0.27300
H2769       H  0.97551213  0.44184336  0.49481260     0.13000
N2770       N  0.93288763  0.46335197  0.48001374    -0.82700
H2771       H  0.93068788  0.51852410  0.52103976     0.17900
N2772       N  0.97396904  0.49743320  0.53563787    -0.81300
H2773       H  0.94444189  0.44683372  0.47607562     0.33500
H2774       H  0.94652958  0.49010299  0.47486048     0.38000
H2775       H  0.96296493  0.51440545  0.53960077     0.33500
H2776       H  0.96045460  0.47092793  0.54093916     0.30200
H2777       H  0.94272345  0.35457074  0.51574890     0.33500
H2778       H  0.92632705  0.38499917  0.51961139     0.30200
H2779       H  0.11365861  0.48760022  0.53616767     0.38100
H2780       H  0.09767240  0.51870106  0.53944802     0.33500
C2781       C  0.73660980  0.66293938  0.87846403    -0.20200
C2782       C  0.70143734  0.63218755  0.87306571     0.36000
C2783       C  0.69930183  0.59685221  0.86944398    -0.26200
C2784       C  0.73136483  0.59147531  0.87117049     0.02400
C2785       C  0.76642583  0.62189361  0.87663431     0.27300
C2786       C  0.76861560  0.65729874  0.88031433    -0.25300
N2787       N  0.66776591  0.63659612  0.87154398    -0.82700
H2788       H  0.67232775  0.57310846  0.86538469     0.13100
C2789       C  0.72684121  0.55309369  0.86759564     0.02400
N2790       N  0.79984870  0.61705829  0.87811148    -0.81300
H2791       H  0.79562457  0.68084916  0.88442154     0.17900
C2792       C  0.73232605  0.54552296  0.85414194    -0.26100
C2793       C  0.72432333  0.50798353  0.85016451     0.35900
C2794       C  0.71068347  0.47775659  0.85988276    -0.20100
C2795       C  0.70624111  0.48584426  0.87339290    -0.25400
C2796       C  0.71371813  0.52301326  0.87731949     0.27300
H2797       H  0.74216050  0.56878503  0.84670936     0.13000
N2798       N  0.72996980  0.50047616  0.83638169    -0.82700
H2799       H  0.69539090  0.46253927  0.88084997     0.17900
N2800       N  0.70623017  0.52982022  0.89098519    -0.81300
H2801       H  0.74009901  0.52581659  0.83052431     0.33500
H2802       H  0.75202392  0.49332756  0.83633140     0.38000
H2803       H  0.69531704  0.50422413  0.89675487     0.33500
H2804       H  0.73285864  0.55004602  0.89536567     0.30200
H2805       H  0.82356260  0.64250271  0.88201672     0.33500
H2806       H  0.79306191  0.59504202  0.88525858     0.30200
H2807       H  0.65900910  0.63957866  0.88122348     0.38100
H2808       H  0.64440651  0.61136327  0.86737361     0.33500
C2809       C  0.78264727  0.77447240  0.90976354    -0.20200
C2810       C  0.76543061  0.78915007  0.91873038     0.36000
C2811       C  0.78554211  0.80875081  0.93053358    -0.26200
C2812       C  0.82257904  0.81421747  0.93352492     0.02400
C2813       C  0.83971999  0.79935878  0.92460919     0.27300
C2814       C  0.81934361  0.77920476  0.91288738    -0.25300
N2815       N  0.72733572  0.78356583  0.91592040    -0.82700
H2816       H  0.77225159  0.81975122  0.93748423     0.13100
C2817       C  0.84324976  0.83595305  0.94595681     0.02400
N2818       N  0.87800280  0.80541679  0.92738875    -0.81300
H2819       H  0.83256203  0.76803386  0.90597497     0.17900
C2820       C  0.85365482  0.81733613  0.95585022    -0.26100
C2821       C  0.87359282  0.83705350  0.96767325     0.35900
C2822       C  0.88406497  0.87662570  0.96951696    -0.20100
C2823       C  0.87269893  0.89486436  0.95974843    -0.25400
C2824       C  0.85247575  0.87496937  0.94798709     0.27300
H2825       H  0.84574913  0.78709650  0.95438902     0.13000
N2826       N  0.88253573  0.81678094  0.97790535    -0.82700
H2827       H  0.88037274  0.92505864  0.96114469     0.17900
N2828       N  0.84173192  0.89437256  0.93799552    -0.81300
H2829       H  0.87294603  0.78798225  0.97496237     0.33500
H2830       H  0.86669620  0.81506535  0.98658321     0.38000
H2831       H  0.85034843  0.92286123  0.94105155     0.33500
H2832       H  0.85723151  0.89680947  0.92915324     0.30200
H2833       H  0.88646414  0.79276794  0.91983878     0.33500
H2834       H  0.89769659  0.83552996  0.92700570     0.30200
H2835       H  0.70741373  0.75349805  0.91621025     0.38100
H2836       H  0.71891849  0.79618709  0.92349476     0.33500
C2837       C  0.51655333  0.82837318  0.79455190    -0.20200
C2838       C  0.50372820  0.78805143  0.79305913     0.36000
C2839       C  0.48351260  0.76836034  0.78130432    -0.26200
C2840       C  0.47554625  0.78778286  0.77102211     0.02400
C2841       C  0.48838466  0.82794847  0.77242427     0.27300
C2842       C  0.50838290  0.84774199  0.78423972    -0.25300
N2843       N  0.51047142  0.76692727  0.80358353    -0.82700
H2844       H  0.47300361  0.73735855  0.78028832     0.13100
C2845       C  0.45143962  0.76493011  0.75929303     0.02400
N2846       N  0.48142464  0.84849638  0.76175899    -0.81300
H2847       H  0.51846874  0.87864796  0.78524434     0.17900
C2848       C  0.41584719  0.76338233  0.75689849    -0.26100
C2849       C  0.39095264  0.74055242  0.74643238     0.35900
C2850       C  0.40168910  0.71863859  0.73804402    -0.20100
C2851       C  0.43748273  0.72024167  0.74047443    -0.25400
C2852       C  0.46247498  0.74318931  0.75099105     0.27300
H2853       H  0.40689524  0.77945273  0.76339912     0.13000
N2854       N  0.35436478  0.73908031  0.74462530    -0.82700
H2855       H  0.44634865  0.70401531  0.73402575     0.17900
N2856       N  0.49904451  0.74465849  0.75324155    -0.81300
H2857       H  0.33852643  0.72900629  0.75363020     0.33500
H2858       H  0.36006876  0.76756342  0.74288473     0.38000
H2859       H  0.50271790  0.72687564  0.74630750     0.33500
H2860       H  0.52138569  0.77334173  0.75138088     0.30200
H2861       H  0.49263171  0.87783779  0.76435005     0.33500
H2862       H  0.49700199  0.84827778  0.75327254     0.30200
H2863       H  0.49445185  0.76636888  0.81205421     0.38100
H2864       H  0.49973996  0.73780525  0.80078535     0.33500
C2865       C  0.56948924  0.11547845  0.84643678    -0.20200
C2866       C  0.56207379  0.10103974  0.83295312     0.36000
C2867       C  0.55561067  0.06341579  0.83030787    -0.26200
C2868       C  0.55714898  0.04000994  0.84064108     0.02400
C2869       C  0.56419186  0.05393066  0.85406446     0.27300
C2870       C  0.57000592  0.09138128  0.85684393    -0.25300
N2871       N  0.56390908  0.12542345  0.82181026    -0.82700
H2872       H  0.55110335  0.05289187  0.81997452     0.13100
C2873       C  0.55597167  0.00317227  0.83685307     0.02400
N2874       N  0.56645775  0.03037212  0.86473512    -0.81300
H2875       H  0.57602078  0.10220153  0.86713801     0.17900
C2876       C  0.58954471  0.00058913  0.83884686    -0.26100
C2877       C  0.59166887  0.96815419  0.83429653     0.35900
C2878       C  0.55935866  0.93745619  0.82738792    -0.20100
C2879       C  0.52560358  0.94016124  0.82542897    -0.25400
C2880       C  0.52349916  0.97257269  0.83018394     0.27300
H2881       H  0.61464813  0.02453973  0.84376645     0.13000
N2882       N  0.62722573  0.96733890  0.83621839    -0.82700
H2883       H  0.50064430  0.91677830  0.82026210     0.17900
N2884       N  0.48866948  0.97470757  0.82823018    -0.81300
H2885       H  0.64958460  0.99442395  0.83965723     0.33500
H2886       H  0.62228940  0.94753992  0.84404560     0.38000
H2887       H  0.46745273  0.94993580  0.82312440     0.33500
H2888       H  0.47726205  0.97432776  0.83779403     0.30200
H2889       H  0.57237089  0.04499594  0.87399609     0.33500
H2890       H  0.53894613  0.00525014  0.86562927     0.30200
H2891       H  0.53859896  0.12738750  0.82211489     0.38100
H2892       H  0.56314676  0.11233659  0.81255170     0.33500
C2893       C  0.60902008  0.84594007  0.83080566    -0.20200
C2894       C  0.62427789  0.82501647  0.82409145     0.36000
C2895       C  0.64390566  0.80991816  0.83161346    -0.26200
C2896       C  0.64897454  0.81562053  0.84563730     0.02400
C2897       C  0.63482593  0.83750405  0.85227043     0.27300
C2898       C  0.61529730  0.85267391  0.84477451    -0.25300
N2899       N  0.62024880  0.81954678  0.80967455    -0.82700
H2900       H  0.65557225  0.79381517  0.82651897     0.13100
C2901       C  0.66940357  0.79881774  0.85329394     0.02400
N2902       N  0.63964310  0.84351976  0.86665121    -0.81300
H2903       H  0.60376792  0.86873081  0.84998028     0.17900
C2904       C  0.70309312  0.82389284  0.86066659    -0.26100
C2905       C  0.72264852  0.80928456  0.86845786     0.35900
C2906       C  0.70787410  0.76844277  0.86902837    -0.20100
C2907       C  0.67471868  0.74345867  0.86129322    -0.25400
C2908       C  0.65527840  0.75820718  0.85346217     0.27300
H2909       H  0.71428814  0.85514026  0.86026776     0.13000
N2910       N  0.75776855  0.83591381  0.87559486    -0.82700
H2911       H  0.66331995  0.71217886  0.86160760     0.17900
N2912       N  0.62091866  0.73209466  0.84586379    -0.81300
H2913       H  0.76432945  0.86481121  0.87422160     0.33500
H2914       H  0.78073146  0.83391718  0.87125920     0.38000
H2915       H  0.61449432  0.70317218  0.84700117     0.33500
H2916       H  0.59740973  0.73354142  0.84997760     0.30200
H2917       H  0.62782624  0.86044085  0.86995730     0.33500
H2918       H  0.62354243  0.81618771  0.87132558     0.30200
H2919       H  0.63612463  0.84713970  0.80515556     0.38100
H2920       H  0.63282489  0.80331038  0.80637337     0.33500
C2921       C  0.18926318  0.44582969  0.68249236    -0.20200
C2922       C  0.14897448  0.42955418  0.68522302     0.36000
C2923       C  0.12288014  0.39053989  0.68166179    -0.26200
C2924       C  0.13595731  0.36735154  0.67550275     0.02400
C2925       C  0.17606214  0.38333300  0.67285931     0.27300
C2926       C  0.20224866  0.42235600  0.67636940    -0.25300
N2927       N  0.13427205  0.45303378  0.69089122    -0.82700
H2928       H  0.09188400  0.37833138  0.68339313     0.13100
C2929       C  0.10662750  0.32727141  0.67114451     0.02400
N2930       N  0.18994554  0.36000478  0.66651167    -0.81300
H2931       H  0.23301980  0.43465159  0.67416894     0.17900
C2932       C  0.10382953  0.31759189  0.65740152    -0.26100
C2933       C  0.07317929  0.28192352  0.65253856     0.35900
C2934       C  0.04406339  0.25577285  0.66165068    -0.20100
C2935       C  0.04816203  0.26479932  0.67551753    -0.25400
C2936       C  0.07933607  0.30008074  0.68036753     0.27300
H2937       H  0.12489734  0.33863223  0.65035172     0.13000
N2938       N  0.07059302  0.27341501  0.63831299    -0.82700
H2939       H  0.02654018  0.24452109  0.68259609     0.17900
N2940       N  0.08298923  0.30888447  0.69458305    -0.81300
H2941       H  0.09232883  0.29727354  0.63295517     0.33500
H2942       H  0.07667690  0.25079640  0.63709572     0.38000
H2943       H  0.06040136  0.28594738  0.70000744     0.33500
H2944       H  0.10901615  0.31097472  0.69793734     0.30200
H2945       H  0.22019381  0.37631589  0.66511754     0.33500
H2946       H  0.18457920  0.33720952  0.67315152     0.30200
H2947       H  0.14306297  0.45822979  0.70101722     0.38100
H2948       H  0.10373070  0.43756347  0.69102885     0.33500
C2949       C  0.96382457  0.04339684  0.56941447    -0.20200
C2950       C  0.93739194  0.02564954  0.58023566     0.36000
C2951       C  0.93987889  0.04835053  0.59147445    -0.26200
C2952       C  0.96761283  0.08837410  0.59198922     0.02400
C2953       C  0.99365573  0.10624926  0.58112871     0.27300
C2954       C  0.99176373  0.08347012  0.56999637    -0.25300
N2955       N  0.90934364  0.98444847  0.58008017    -0.82700
H2956       H  0.92029790  0.03473579  0.59995763     0.13100
C2957       C  0.96957129  0.11083952  0.60417426     0.02400
N2958       N  0.02179738  0.14739431  0.58146639    -0.81300
H2959       H  0.01191999  0.09712631  0.56165340     0.17900
C2960       C  0.00414503  0.12908710  0.61177650    -0.26100
C2961       C  0.00654123  0.14897863  0.62379219     0.35900
C2962       C  0.97353175  0.15066818  0.62822861    -0.20100
C2963       C  0.93903738  0.13251031  0.62051967    -0.25400
C2964       C  0.93681576  0.11286903  0.60848594     0.27300
H2965       H  0.02905712  0.12697216  0.60846556     0.13000
N2966       N  0.04196176  0.16647198  0.63162567    -0.82700
H2967       H  0.91379357  0.13406250  0.62379667     0.17900
N2968       N  0.90154122  0.09512719  0.60057213    -0.81300
H2969       H  0.06349619  0.16302990  0.62681397     0.33500
H2970       H  0.03590665  0.15120869  0.64078693     0.38000
H2971       H  0.88008232  0.09909444  0.60518378     0.33500
H2972       H  0.90787921  0.10982078  0.59128755     0.30200
H2973       H  0.03928699  0.15575880  0.57280788     0.33500
H2974       H  0.00641584  0.16245349  0.58125128     0.30200
H2975       H  0.88805471  0.97984588  0.57289412     0.38100
H2976       H  0.89472607  0.97555711  0.58934612     0.33500
C2977       C  0.42693368  0.80571736  0.69340141    -0.20200
C2978       C  0.45221252  0.83128956  0.68335051     0.36000
C2979       C  0.48399775  0.86781166  0.68705441    -0.26200
C2980       C  0.49137663  0.87928492  0.70067170     0.02400
C2981       C  0.46622226  0.85388040  0.71076927     0.27300
C2982       C  0.43408924  0.81764465  0.70702675    -0.25300
N2983       N  0.44553731  0.82053485  0.66936330    -0.82700
H2984       H  0.50308960  0.88733313  0.67924863     0.13100
C2985       C  0.52560942  0.91784009  0.70428141     0.02400
N2986       N  0.47398138  0.86460589  0.72480561    -0.81300
H2987       H  0.41539305  0.79798324  0.71488024     0.17900
C2988       C  0.51956067  0.94561103  0.71088716    -0.26100
C2989       C  0.55108648  0.98203506  0.71486671     0.35900
C2990       C  0.58986608  0.99110249  0.71208150    -0.20100
C2991       C  0.59564008  0.96322691  0.70525056    -0.25400
C2992       C  0.56401233  0.92673215  0.70139400     0.27300
H2993       H  0.48992994  0.93869202  0.71298926     0.13000
N2994       N  0.54350314  0.00994188  0.72138924    -0.82700
H2995       H  0.62504854  0.96963749  0.70305347     0.17900
N2996       N  0.57072650  0.89847888  0.69467974    -0.81300
H2997       H  0.51365614  0.00045098  0.72117278     0.33500
H2998       H  0.55069785  0.01064861  0.73160763     0.38000
H2999       H  0.60061180  0.90958251  0.69321923     0.33500
H3000       H  0.56099521  0.87428690  0.70110411     0.30200
H3001       H  0.45278405  0.84267415  0.73096255     0.33500
H3002       H  0.50056414  0.86653207  0.72727711     0.30200
H3003       H  0.47044044  0.82114315  0.66557595     0.38100
H3004       H  0.44202979  0.84163953  0.66417665     0.33500
C3005       C  0.65205958  0.11009460  0.74068282    -0.20200
C3006       C  0.67966663  0.15038020  0.74244462     0.36000
C3007       C  0.67747019  0.17001684  0.75397516    -0.26200
C3008       C  0.64793128  0.15071317  0.76363486     0.02400
C3009       C  0.61966397  0.11106712  0.76170685     0.27300
C3010       C  0.62196317  0.09123222  0.75028069    -0.25300
N3011       N  0.70962615  0.17140568  0.73253000    -0.82700
H3012       H  0.69881999  0.20066532  0.75543763     0.13100
C3013       C  0.64741956  0.17212225  0.77589939     0.02400
N3014       N  0.58914755  0.09091881  0.77151320    -0.81300
H3015       H  0.60059644  0.06050613  0.74909373     0.17900
C3016       C  0.61671441  0.17953794  0.77782370    -0.26100
C3017       C  0.61511626  0.19937167  0.78939531     0.35900
C3018       C  0.64468816  0.21161292  0.79938572    -0.20100
C3019       C  0.67567268  0.20451285  0.79729473    -0.25400
C3020       C  0.67715245  0.18465260  0.78572618     0.27300
H3021       H  0.59408593  0.17007058  0.77018264     0.13000
N3022       N  0.58394542  0.20766514  0.79088843    -0.82700
H3023       H  0.69840111  0.21367128  0.80488020     0.17900
N3024       N  0.70837430  0.17652340  0.78400532    -0.81300
H3025       H  0.59627199  0.23805197  0.79056318     0.33500
H3026       H  0.56454112  0.19644416  0.78273064     0.38000
H3027       H  0.72795023  0.18768671  0.79211590     0.33500
H3028       H  0.69614798  0.14614563  0.78425269     0.30200
H3029       H  0.57054798  0.06190612  0.76859444     0.33500
H3030       H  0.60225108  0.08995013  0.78059297     0.30200
H3031       H  0.69585049  0.17216340  0.72358674     0.38100
H3032       H  0.72773693  0.20048892  0.73547318     0.33500
C3033       C  0.90346580  0.16214796  0.66722008    -0.20200
C3034       C  0.86649890  0.14443197  0.66078383     0.36000
C3035       C  0.83260293  0.13028657  0.66868989    -0.26200
C3036       C  0.83491414  0.13347935  0.68280434     0.02400
C3037       C  0.87153922  0.15056086  0.68926992     0.27300
C3038       C  0.90551614  0.16515359  0.68139483    -0.25300
N3039       N  0.86344892  0.14133697  0.64628276    -0.82700
H3040       H  0.80420819  0.11700096  0.66384413     0.13100
C3041       C  0.79860147  0.11933726  0.69065843     0.02400
N3042       N  0.87396265  0.15198015  0.70379798    -0.81300
H3043       H  0.93369732  0.17814526  0.68637467     0.17900
C3044       C  0.77709151  0.07985046  0.69440899    -0.26100
C3045       C  0.74196742  0.06526050  0.70165961     0.35900
C3046       C  0.72830907  0.09086541  0.70518931    -0.20100
C3047       C  0.75015674  0.13047679  0.70147308    -0.25400
C3048       C  0.78500162  0.14489429  0.69409600     0.27300
H3049       H  0.78780675  0.06044862  0.69166204     0.13000
N3050       N  0.72046439  0.02477237  0.70560304    -0.82700
H3051       H  0.73949418  0.15002668  0.70406130     0.17900
N3052       N  0.80599343  0.18502474  0.68970231    -0.81300
H3053       H  0.73439414  0.00996277  0.70215360     0.33500
H3054       H  0.72075904  0.02366980  0.71617378     0.38000
H3055       H  0.79153858  0.19966948  0.69276853     0.33500
H3056       H  0.83310738  0.19879885  0.69455950     0.30200
H3057       H  0.90302853  0.16457887  0.70695381     0.33500
H3058       H  0.86401607  0.17038963  0.70719055     0.30200
H3059       H  0.87639385  0.16971129  0.64234391     0.38100
H3060       H  0.83419317  0.12702595  0.64323645     0.33500
loop_ 
_geom_bond_atom_site_label_1 
_geom_bond_atom_site_label_2 
_geom_bond_distance 
_geom_bond_site_symmetry_2 
_ccdc_geom_bond_type 
C1            N2   1.359       .  A
C1            N6   1.361       .  A
C1         C3005   1.495       .  S
N2            C3   1.359       .  A
C3            N4   1.358       .  A
C3         C3046   1.480       .  S
N4            C5   1.360       .  A
C5            N6   1.360       .  A
C5         C2990   1.494   1_545  S
C7            N8   1.356   1_655  A
C7           N12   1.356       .  A
C7         C2962   1.478       .  S
N8            C9   1.356       .  A
C9           N10   1.360   1_455  A
C9         C2934   1.484       .  S
N10          C11   1.359       .  A
C11          N12   1.355       .  A
C11        C3033   1.481       .  S
C13          N14   1.356       .  A
C13          N18   1.364       .  A
C13        C2837   1.486       .  S
N14          C15   1.353       .  A
C15          N16   1.355       .  A
C15        C2893   1.483       .  S
N16          C17   1.358       .  A
C17          N18   1.365       .  A
C17        C2878   1.491       .  S
C19          N20   1.360       .  A
C19          N24   1.358       .  A
C19        C2809   1.480       .  S
N20          C21   1.361       .  A
C21          N22   1.360       .  A
C21        C2781   1.484       .  S
N22          C23   1.359       .  A
C23          N24   1.358       .  A
C23        C2906   1.488       .  S
C25          N26   1.359       .  A
C25          N30   1.359       .  A
C25        C2710   1.479       .  S
N26          C27   1.358       .  A
C27          N28   1.355       .  A
C27        C2766   1.482       .  S
N28          C29   1.355       .  A
C29          N30   1.360       .  A
C29        C2725   1.484       .  S
C31          N32   1.362       .  A
C31          N36   1.357       .  A
C31        C2641   1.479       .  S
N32          C33   1.363       .  A
C33          N34   1.357       .  A
C33        C2682   1.488       .  S
N34          C35   1.355       .  A
C35          N36   1.355       .  A
C35        C2753   1.475       .  S
C37          N38   1.360       .  A
C37          N42   1.361       .  A
C37        C2557   1.490       .  S
N38          C39   1.358       .  A
C39          N40   1.356   1_556  A
C39        C2626   1.478   1_556  S
N40          C41   1.358   1_554  A
C41          N42   1.362       .  A
C41        C2585   1.484   1_556  S
C43          N44   1.358       .  A
C43          N48   1.359       .  A
C43        C2529   1.489       .  S
N44          C45   1.357       .  A
C45          N46   1.359       .  A
C45        C2501   1.479       .  S
N46          C47   1.360       .  A
C47          N48   1.359       .  A
C47        C2613   1.479       .  S
C49          N50   1.359       .  A
C49          N54   1.358       .  A
C49        C2417   1.482       .  S
N50          C51   1.361       .  A
C51          N52   1.357       .  A
C51        C2445   1.490       .  S
N52          C53   1.356       .  A
C53          N54   1.357       .  A
C53        C2486   1.477   1_655  S
C55          N56   1.359       .  A
C55          N60   1.363       .  A
C55        C2389   1.493       .  S
N56          C57   1.358       .  A
C57          N58   1.356       .  A
C57        C2473   1.489       .  S
N58          C59   1.358       .  A
C59          N60   1.362       .  A
C59        C2361   1.484       .  S
C61          N62   1.359       .  A
C61          N66   1.361       .  A
C61        C2277   1.492       .  S
N62          C63   1.358       .  A
C63          N64   1.356       .  A
C63        C2333   1.479       .  S
N64          C65   1.357       .  A
C65          N66   1.357       .  A
C65        C2318   1.475       .  S
C67          N68   1.355       .  A
C67          N72   1.361       .  A
C67        C2234   1.483       .  S
N68          C69   1.353       .  A
C69          N70   1.359       .  A
C69        C2346   1.480       .  S
N70          C71   1.362       .  A
C71          N72   1.362       .  A
C71        C2249   1.486   1_545  S
C73          N74   1.361       .  A
C73          N78   1.361       .  A
C73        C2165   1.488       .  S
N74          C75   1.360       .  A
C75          N76   1.354       .  A
C75        C2206   1.481       .  S
N76          C77   1.355       .  A
C77          N78   1.358       .  A
C77        C2137   1.481   1_455  S
C79          N80   1.358       .  A
C79          N84   1.360   1_565  A
C79        C2109   1.476       .  S
N80          C81   1.360       .  A
C81          N82   1.359       .  A
C81        C2193   1.492       .  S
N82          C83   1.357       .  A
C83          N84   1.357   1_565  A
C83        C2094   1.477   1_565  S
C85          N86   1.362       .  A
C85          N90   1.355       .  A
C85        C2038   1.489       .  S
N86          C87   1.363       .  A
C87          N88   1.357       .  A
C87        C2010   1.483       .  S
N88          C89   1.355       .  A
C89          N90   1.353       .  A
C89        C2053   1.477       .  S
C91          N92   1.353       .  A
C91          N96   1.359       .  A
C91        C1954   1.483       .  S
N92          C93   1.352       .  A
C93          N94   1.355       .  A
C93        C2066   1.469       .  S
N94          C95   1.358       .  A
C95          N96   1.359       .  A
C95        C1969   1.471       .  S
C97          N98   1.359       .  A
C97         N102   1.355       .  A
C97        C1885   1.479       .  S
N98          C99   1.361       .  A
C99         N100   1.359       .  A
C99        C1870   1.486       .  S
N100        C101   1.356       .  A
C101        N102   1.355       .  A
C101       C1913   1.476       .  S
C103        N104   1.356       .  A
C103        N108   1.361       .  A
C103       C1814   1.487       .  S
N104        C105   1.355       .  A
C105        N106   1.356       .  A
C105       C1926   1.482       .  S
N106        C107   1.358       .  A
C107        N108   1.360       .  A
C107       C1829   1.488       .  S
C109        N110   1.363       .  A
C109        N114   1.361       .  A
C109       C1745   1.484       .  S
N110        C111   1.361       .  A
C111        N112   1.356       .  A
C111       C1786   1.483   1_556  S
N112        C113   1.356       .  A
C113        N114   1.359       .  A
C113       C1717   1.480       .  S
C115        N116   1.357       .  A
C115        N120   1.358       .  A
C115       C1661   1.476       .  S
N116        C117   1.358       .  A
C117        N118   1.361       .  A
C117       C1689   1.496       .  S
N118        C119   1.359       .  A
C119        N120   1.358       .  A
C119       C1773   1.487       .  S
C121        N122   1.358       .  A
C121        N126   1.360       .  A
C121       C1577   1.491       .  S
N122        C123   1.358       .  A
C123        N124   1.361       .  A
C123       C1618   1.490       .  S
N124        C125   1.362       .  A
C125        N126   1.361       .  A
C125       C1633   1.492       .  S
C127        N128   1.361       .  A
C127        N132   1.361       .  A
C127       C1549   1.485       .  S
N128        C129   1.361       .  A
C129        N130   1.360       .  A
C129       C1534   1.492   1_455  S
N130        C131   1.358       .  A
C131        N132   1.360       .  A
C131       C1646   1.483       .  S
C133        N134   1.361       .  A
C133        N138   1.360       .  A
C133       C1437   1.484       .  S
N134        C135   1.358       .  A
C135        N136   1.355       .  A
C135       C1506   1.483       .  S
N136        C137   1.356       .  A
C137        N138   1.359       .  A
C137       C1465   1.478       .  S
C139        N140   1.359       .  A
C139        N144   1.359   1_565  A
C139       C1381   1.490       .  S
N140        C141   1.358       .  A
C141        N142   1.360       .  A
C141       C1409   1.490       .  S
N142        C143   1.359   1_565  A
C143        N144   1.359       .  A
C143       C1493   1.485       .  S
C145        N146   1.356       .  A
C145        N150   1.362       .  A
C145       C1325   1.480       .  S
N146        C147   1.355       .  A
C147        N148   1.355       .  A
C147       C1366   1.478       .  S
N148        C149   1.357       .  A
C149        N150   1.362       .  A
C149       C1297   1.481       .  S
C151        N152   1.362       .  A
C151        N156   1.356       .  A
C151       C1269   1.491       .  S
N152        C153   1.362       .  A
C153        N154   1.359       .  A
C153       C1241   1.490   1_565  S
N154        C155   1.356       .  A
C155        N156   1.354       .  A
C155       C1353   1.480       .  S
C157        N158   1.357       .  A
C157        N162   1.357       .  A
C157       C1185   1.485       .  S
N158        C159   1.355       .  A
C159        N160   1.360       .  A
C159       C1226   1.484       .  S
N160        C161   1.360       .  A
C161        N162   1.359       .  A
C161       C1170   1.478       .  S
C163        N164   1.360   1_565  A
C163        N168   1.361       .  A
C163       C1129   1.490       .  S
N164        C165   1.357       .  A
C165        N166   1.355   1_545  A
C165       C1213   1.479       .  S
N166        C167   1.356       .  A
C167        N168   1.359       .  A
C167       C1114   1.475       .  S
C169        N170   1.359       .  A
C169        N174   1.359       .  A
C169       C1058   1.485       .  S
N170        C171   1.359       .  A
C171        N172   1.359       .  A
C171       C1073   1.477       .  S
N172        C173   1.358       .  A
C173        N174   1.358       .  A
C173       C1017   1.480       .  S
C175        N176   1.353       .  A
C175        N180   1.359       .  A
C175        C961   1.481       .  S
N176        C177   1.355       .  A
C177        N178   1.361       .  A
C177       C1086   1.481       .  S
N178        C179   1.363       .  A
C179        N180   1.361       .  A
C179        C989   1.484       .  S
C181        N182   1.363       .  A
C181        N186   1.359       .  A
C181        C877   1.489       .  S
N182        C183   1.364       .  A
C183        N184   1.358       .  A
C183        C905   1.488       .  S
N184        C185   1.356       .  A
C185        N186   1.358       .  A
C185        C933   1.483       .  S
C187        N188   1.359       .  A
C187        N192   1.359   1_655  A
C187        C849   1.493       .  S
N188        C189   1.357       .  A
C189        N190   1.357       .  A
C189        C946   1.473       .  S
N190        C191   1.359   1_655  A
C191        N192   1.358       .  A
C191        C821   1.489       .  S
C193        N194   1.358       .  A
C193        N198   1.356       .  A
C193        C765   1.482       .  S
N194        C195   1.360       .  A
C195        N196   1.361   1_556  A
C195        C737   1.485       .  S
N196        C197   1.359   1_554  A
C197        N198   1.357       .  A
C197        C793   1.491   1_556  S
C199        N200   1.357       .  A
C199        N204   1.360       .  A
C199        C694   1.495       .  S
N200        C201   1.355       .  A
C201        N202   1.358       .  A
C201        C806   1.478       .  S
N202        C203   1.360       .  A
C203        N204   1.361       .  A
C203        C709   1.482       .  S
C205        N206   1.356       .  A
C205        N210   1.361       .  A
C205        C610   1.478       .  S
N206        C207   1.357       .  A
C207        N208   1.361       .  A
C207        C666   1.489       .  S
N208        C209   1.361       .  A
C209        N210   1.363       .  A
C209        C625   1.496       .  S
C211        N212   1.355       .  A
C211        N216   1.359       .  A
C211        C541   1.477       .  S
N212        C213   1.354   1_655  A
C213        N214   1.359   1_455  A
C213        C653   1.487       .  S
N214        C215   1.362       .  A
C215        N216   1.361       .  A
C215        C582   1.489       .  S
O217       Zr253   2.449       .  S
O217        C228   1.294       .  A
O218       Zr252   2.449       .  S
O218        C229   1.294       .  A
O219       Zr225   2.417       .  S
O219        C230   1.288       .  A
O220       Zr225   2.438       .  S
O220        C231   1.292       .  A
O221       Zr255   2.439       .  S
O221        C231   1.293       .  A
O222       Zr254   2.452       .  S
O222        C230   1.296       .  A
O223       Zr225   2.423       .  S
O223        C229   1.290       .  A
O224       Zr225   2.447       .  S
O224        C228   1.294       .  A
Zr225       O226   2.335       .  S
Zr225       O227   2.332       .  S
Zr225       O235   2.329       .  S
Zr225       O233   2.345       .  S
O226       Zr252   2.337       .  S
O226       Zr255   2.345       .  S
O227       Zr253   2.337       .  S
O227       Zr254   2.341       .  S
C228       C3018   1.492       .  S
C229       C2150   1.482       .  S
C230       C1941   1.480       .  S
C231        C569   1.487       .  S
H232        O233   0.965       .  S
O233       Zr252   2.336       .  S
O233       Zr254   2.328       .  S
H234        O235   0.966       .  S
O235       Zr253   2.345       .  S
O235       Zr255   2.338       .  S
O236       Zr252   2.430       .  S
O236        C259   1.290       .  A
O237       Zr253   2.468       .  S
O237        C260   1.298       .  A
O238       Zr254   2.465       .  S
O238        C261   1.297       .  A
O239       Zr255   2.433       .  S
O239        C262   1.292       .  A
O240       Zr255   2.458       .  S
O240        C263   1.296       .  A
O241       Zr254   2.430       .  S
O241        C264   1.292       .  A
O242       Zr256   2.470       .  S
O242        C265   1.299       .  A
O243       Zr256   2.432       .  S
O243        C266   1.291       .  A
O244       Zr254   2.439       .  S
O244        C265   1.293       .  A
O245       Zr255   2.437       .  S
O245        C266   1.292       .  A
O246       Zr252   2.419       .  S
O246        C261   1.289       .  A
O247       Zr253   2.429       .  S
O247        C264   1.290       .  A
O248       Zr253   2.427       .  S
O248        C263   1.289       .  A
O249       Zr252   2.439       .  S
O249        C262   1.292       .  A
O250       Zr256   2.467       .  S
O250        C259   1.298       .  A
O251       Zr256   2.419       .  S
O251        C260   1.290       .  A
Zr252       O258   2.348       .  S
Zr252       O270   2.334       .  S
Zr253       O257   2.335       .  S
Zr253       O268   2.339       .  S
Zr254       O258   2.342       .  S
Zr254       O268   2.349       .  S
Zr255       O257   2.338       .  S
Zr255       O270   2.347       .  S
Zr256       O257   2.354       .  S
Zr256       O258   2.330       .  S
Zr256       O270   2.342       .  S
Zr256       O268   2.344       .  S
C259       C2570   1.485       .  S
C260       C2081   1.485       .  S
C261       C2794   1.480       .  S
C262        C778   1.473       .  S
C263       C2865   1.491       .  S
C264       C1198   1.487       .  S
C265        C638   1.497       .  S
C266       C1730   1.469       .  S
H267        O268   0.966       .  S
H269        O270   0.966       .  S
O271       Zr307   2.441   1_556  S
O271        C282   1.293       .  A
O272       Zr306   2.434       .  S
O272        C283   1.291       .  A
O273       Zr279   2.436   1_456  S
O273        C284   1.292       .  A
O274       Zr279   2.430       .  S
O274        C285   1.291       .  A
O275       Zr309   2.441       .  S
O275        C285   1.294       .  A
O276       Zr308   2.430   1_566  S
O276        C284   1.292       .  A
O277       Zr279   2.438   1_455  S
O277        C283   1.293       .  A
O278       Zr279   2.440   1_556  S
O278        C282   1.293       .  A
Zr279       O280   2.336       .  S
Zr279       O281   2.333   1_554  S
Zr279       O289   2.340       .  S
Zr279       O287   2.343   1_655  S
O280       Zr306   2.339   1_655  S
O280       Zr309   2.330       .  S
O281       Zr307   2.337   1_556  S
O281       Zr308   2.344   1_666  S
C282       C2822   1.486       .  S
C283        C722   1.494       .  S
C284       C2122   1.488       .  S
C285       C2598   1.484       .  S
H286        O287   0.963       .  S
O287       Zr306   2.342       .  S
O287       Zr308   2.345   1_565  S
H288        O289   0.965       .  S
O289       Zr307   2.331       .  S
O289       Zr309   2.334       .  S
O290       Zr306   2.447   1_545  S
O290        C313   1.295       .  A
O291       Zr307   2.423   1_545  S
O291        C314   1.289       .  A
O292       Zr308   2.443       .  S
O292        C315   1.294       .  A
O293       Zr309   2.425       .  S
O293        C316   1.289       .  A
O294       Zr309   2.412       .  S
O294        C317   1.287       .  A
O295       Zr308   2.444   1_556  S
O295        C318   1.293   1_455  A
O296       Zr310   2.434   1_455  S
O296        C319   1.291       .  A
O297       Zr310   2.450       .  S
O297        C320   1.295   1_545  A
O298       Zr308   2.446       .  S
O298        C319   1.295       .  A
O299       Zr309   2.438       .  S
O299        C320   1.292       .  A
O300       Zr306   2.456   1_545  S
O300        C315   1.295       .  A
O301       Zr307   2.419   1_546  S
O301        C318   1.290       .  A
O302       Zr307   2.446       .  S
O302        C317   1.294       .  A
O303       Zr306   2.443       .  S
O303        C316   1.294   1_455  A
O304       Zr310   2.420   1_455  S
O304        C313   1.289       .  A
O305       Zr310   2.448       .  S
O305        C314   1.295       .  A
Zr306       O312   2.338   1_565  S
Zr306       O324   2.338   1_455  S
Zr307       O311   2.336       .  S
Zr307       O322   2.350   1_565  S
Zr308       O312   2.336       .  S
Zr308       O322   2.343   1_455  S
Zr309       O311   2.339       .  S
Zr309       O324   2.329       .  S
Zr310       O311   2.334   1_545  S
Zr310       O312   2.348   1_655  S
Zr310       O324   2.339   1_545  S
Zr310       O322   2.339       .  S
C313       C2290   1.476       .  S
C314        C750   1.480       .  S
C315       C1758   1.502       .  S
C316        C862   1.478       .  S
C317       C1674   1.490       .  S
C318        C554   1.476       .  S
C319       C2514   1.497       .  S
C320       C1394   1.489       .  S
H321        O322   0.965       .  S
H323        O324   0.965       .  S
O325       Zr361   2.436       .  S
O325        C336   1.292       .  A
O326       Zr360   2.449       .  S
O326        C337   1.294       .  A
O327       Zr333   2.429       .  S
O327        C338   1.292       .  A
O328       Zr333   2.442       .  S
O328        C339   1.293       .  A
O329       Zr363   2.448       .  S
O329        C339   1.294       .  A
O330       Zr362   2.448       .  S
O330        C338   1.294       .  A
O331       Zr333   2.431       .  S
O331        C337   1.291       .  A
O332       Zr333   2.440       .  S
O332        C336   1.293       .  A
Zr333       O334   2.331       .  S
Zr333       O335   2.338       .  S
Zr333       O343   2.339       .  S
Zr333       O341   2.343       .  S
O334       Zr360   2.324       .  S
O334       Zr363   2.339       .  S
O335       Zr361   2.338       .  S
O335       Zr362   2.343       .  S
C336       C2738   1.488       .  S
C337       C1254   1.485       .  S
C338       C1030   1.494       .  S
C339       C1521   1.490       .  S
H340        O341   0.966       .  S
O341       Zr360   2.343       .  S
O341       Zr362   2.343       .  S
H342        O343   0.966       .  S
O343       Zr361   2.350       .  S
O343       Zr363   2.349       .  S
O344       Zr360   2.431       .  S
O344        C367   1.291       .  A
O345       Zr361   2.449       .  S
O345        C368   1.294       .  A
O346       Zr362   2.456       .  S
O346        C369   1.296       .  A
O347       Zr363   2.422       .  S
O347        C370   1.290       .  A
O348       Zr363   2.442       .  S
O348        C371   1.293       .  A
O349       Zr362   2.434       .  S
O349        C372   1.293       .  A
O350       Zr364   2.450       .  S
O350        C373   1.294       .  A
O351       Zr364   2.437       .  S
O351        C374   1.292       .  A
O352       Zr362   2.450       .  S
O352        C373   1.295       .  A
O353       Zr363   2.461       .  S
O353        C374   1.296       .  A
O354       Zr360   2.418       .  S
O354        C369   1.290       .  A
O355       Zr361   2.455       .  S
O355        C372   1.296       .  A
O356       Zr361   2.433       .  S
O356        C371   1.292       .  A
O357       Zr360   2.453       .  S
O357        C370   1.294       .  A
O358       Zr364   2.431       .  S
O358        C367   1.291       .  A
O359       Zr364   2.419       .  S
O359        C368   1.289       .  A
Zr360       O366   2.343       .  S
Zr360       O378   2.343       .  S
Zr361       O365   2.338       .  S
Zr361       O376   2.339       .  S
Zr362       O366   2.334       .  S
Zr362       O376   2.348       .  S
Zr363       O365   2.332       .  S
Zr363       O378   2.347       .  S
Zr364       O365   2.339       .  S
Zr364       O366   2.328       .  S
Zr364       O378   2.347       .  S
Zr364       O376   2.340       .  S
C367       C2221   1.470       .  S
C368       C1310   1.480       .  S
C369       C2374   1.480       .  S
C370       C1450   1.485       .  S
C371       C2458   1.478       .  S
C372       C1898   1.494       .  S
C373       C1605   1.494       .  S
C374        C890   1.489       .  S
H375        O376   0.966       .  S
H377        O378   0.966       .  S
O379       Zr415   2.433       .  S
O379        C390   1.292       .  A
O380       Zr414   2.426       .  S
O380        C391   1.289       .  A
O381       Zr387   2.429       .  S
O381        C392   1.291       .  A
O382       Zr387   2.445       .  S
O382        C393   1.293       .  A
O383       Zr417   2.417       .  S
O383        C393   1.289       .  A
O384       Zr416   2.440       .  S
O384        C392   1.293       .  A
O385       Zr387   2.441       .  S
O385        C391   1.293       .  A
O386       Zr387   2.450       .  S
O386        C390   1.295       .  A
Zr387       O388   2.340       .  S
Zr387       O389   2.331       .  S
Zr387       O397   2.335       .  S
Zr387       O395   2.348       .  S
O388       Zr414   2.330       .  S
O388       Zr417   2.330       .  S
O389       Zr415   2.332       .  S
O389       Zr416   2.329       .  S
C390       C2977   1.488       .  S
C391       C1801   1.478       .  S
C392       C1997   1.476       .  S
C393        C974   1.475       .  S
H394        O395   0.966       .  S
O395       Zr414   2.338       .  S
O395       Zr416   2.347       .  S
H396        O397   0.969       .  S
O397       Zr415   2.344       .  S
O397       Zr417   2.351       .  S
O398       Zr414   2.422       .  S
O398        C421   1.290       .  A
O399       Zr415   2.442       .  S
O399        C422   1.294       .  A
O400       Zr416   2.443       .  S
O400        C423   1.293       .  A
O401       Zr417   2.459       .  S
O401        C424   1.296       .  A
O402       Zr417   2.418       .  S
O402        C425   1.289       .  A
O403       Zr416   2.445       .  S
O403        C426   1.294       .  A
O404       Zr418   2.451       .  S
O404        C427   1.295       .  A
O405       Zr418   2.427       .  S
O405        C428   1.290       .  A
O406       Zr416   2.437       .  S
O406        C427   1.293       .  A
O407       Zr417   2.431       .  S
O407        C428   1.291       .  A
O408       Zr414   2.425       .  S
O408        C423   1.290       .  A
O409       Zr415   2.432       .  S
O409        C426   1.291       .  A
O410       Zr415   2.453       .  S
O410        C425   1.295       .  A
O411       Zr414   2.417       .  S
O411        C424   1.288       .  A
O412       Zr418   2.448       .  S
O412        C421   1.294       .  A
O413       Zr418   2.434       .  S
O413        C422   1.291       .  A
Zr414       O420   2.332       .  S
Zr414       O432   2.336       .  S
Zr415       O419   2.329       .  S
Zr415       O430   2.354       .  S
Zr416       O420   2.335       .  S
Zr416       O430   2.352       .  S
Zr417       O419   2.336       .  S
Zr417       O432   2.328       .  S
Zr418       O419   2.339       .  S
Zr418       O420   2.332       .  S
Zr418       O432   2.341       .  S
Zr418       O430   2.348       .  S
C421       C2921   1.483       .  S
C422       C2178   1.489       .  S
C423       C1157   1.476       .  S
C424       C2654   1.481       .  S
C425       C1101   1.475       .  S
C426       C2850   1.488       .  S
C427        C597   1.485       .  S
C428       C1982   1.471       .  S
H429        O430   0.966       .  S
H431        O432   0.965       .  S
O433       Zr469   2.436       .  S
O433        C444   1.293       .  A
O434       Zr468   2.453       .  S
O434        C445   1.295       .  A
O435       Zr441   2.433       .  S
O435        C446   1.292       .  A
O436       Zr441   2.436       .  S
O436        C447   1.292       .  A
O437       Zr471   2.442       .  S
O437        C447   1.293       .  A
O438       Zr470   2.440       .  S
O438        C446   1.292       .  A
O439       Zr441   2.433       .  S
O439        C445   1.292       .  A
O440       Zr441   2.447       .  S
O440        C444   1.294       .  A
Zr441       O442   2.342       .  S
Zr441       O443   2.334       .  S
Zr441       O451   2.339       .  S
Zr441       O449   2.346       .  S
O442       Zr468   2.339       .  S
O442       Zr471   2.346       .  S
O443       Zr469   2.338       .  S
O443       Zr470   2.337       .  S
C444       C2542   1.491       .  S
C445       C1422   1.485       .  S
C446       C1702   1.483       .  S
C447        C918   1.477       .  S
H448        O449   0.967       .  S
O449       Zr468   2.347       .  S
O449       Zr470   2.335       .  S
H450        O451   0.967       .  S
O451       Zr469   2.344       .  S
O451       Zr471   2.342       .  S
O452       Zr468   2.435       .  S
O452        C475   1.292       .  A
O453       Zr469   2.445       .  S
O453        C476   1.294       .  A
O454       Zr470   2.448       .  S
O454        C477   1.295       .  A
O455       Zr471   2.418       .  S
O455        C478   1.290       .  A
O456       Zr471   2.445       .  S
O456        C479   1.294       .  A
O457       Zr470   2.435       .  S
O457        C480   1.291       .  A
O458       Zr472   2.442       .  S
O458        C481   1.293       .  A
O459       Zr472   2.429       .  S
O459        C482   1.290       .  A
O460       Zr470   2.426       .  S
O460        C481   1.291       .  A
O461       Zr471   2.458       .  S
O461        C482   1.296       .  A
O462       Zr468   2.440       .  S
O462        C477   1.293       .  A
O463       Zr469   2.437       .  S
O463        C480   1.292       .  A
O464       Zr469   2.430       .  S
O464        C479   1.290       .  A
O465       Zr468   2.457       .  S
O465        C478   1.295       .  A
O466       Zr472   2.446       .  S
O466        C475   1.294       .  A
O467       Zr472   2.421       .  S
O467        C476   1.289       .  A
Zr468       O474   2.341       .  S
Zr468       O486   2.347       .  S
Zr469       O473   2.335       .  S
Zr469       O484   2.335       .  S
Zr470       O474   2.337       .  S
Zr470       O484   2.344       .  S
Zr471       O473   2.331       .  S
Zr471       O486   2.345       .  S
Zr472       O473   2.341       .  S
Zr472       O474   2.330       .  S
Zr472       O486   2.337       .  S
Zr472       O484   2.340       .  S
C475       C2402   1.480       .  S
C476       C1478   1.486       .  S
C477       C2262   1.493       .  S
C478       C1338   1.481       .  S
C479       C2305   1.474       .  S
C480        C681   1.473       .  S
C481        C834   1.480       .  S
C482       C1562   1.486       .  S
H483        O484   0.966       .  S
H485        O486   0.967       .  S
O487       Zr523   2.423   1_655  S
O487        C498   1.290       .  A
O488       Zr522   2.446       .  S
O488        C499   1.294       .  A
O489       Zr495   2.467       .  S
O489        C500   1.298   1_565  A
O490       Zr495   2.433       .  S
O490        C501   1.292       .  A
O491       Zr525   2.454       .  S
O491        C501   1.295       .  A
O492       Zr524   2.418       .  S
O492        C500   1.287       .  A
O493       Zr495   2.445       .  S
O493        C499   1.293       .  A
O494       Zr495   2.441       .  S
O494        C498   1.293   1_565  A
Zr495       O496   2.348       .  S
Zr495       O497   2.333   1_565  S
Zr495       O505   2.353       .  S
Zr495       O503   2.336       .  S
O496       Zr522   2.336       .  S
O496       Zr525   2.345       .  S
O497       Zr523   2.341   1_655  S
O497       Zr524   2.327       .  S
C498       C2949   1.475       .  S
C499       C1842   1.484       .  S
C500       C1045   1.497       .  S
C501       C2025   1.476       .  S
H502        O503   0.966       .  S
O503       Zr522   2.339       .  S
O503       Zr524   2.348   1_565  S
H504        O505   0.967       .  S
O505       Zr523   2.338   1_665  S
O505       Zr525   2.343       .  S
O506       Zr522   2.422       .  S
O506        C529   1.289       .  A
O507       Zr523   2.440       .  S
O507        C530   1.293       .  A
O508       Zr524   2.419   1_565  S
O508        C531   1.289       .  A
O509       Zr525   2.435       .  S
O509        C532   1.293       .  A
O510       Zr525   2.428   1_455  S
O510        C533   1.290       .  A
O511       Zr524   2.446   1_455  S
O511        C534   1.294       .  A
O512       Zr526   2.435       .  S
O512        C535   1.292   1_565  A
O513       Zr526   2.441       .  S
O513        C536   1.292       .  A
O514       Zr524   2.436   1_455  S
O514        C535   1.292       .  A
O515       Zr525   2.457   1_455  S
O515        C536   1.297       .  A
O516       Zr522   2.454       .  S
O516        C531   1.296       .  A
O517       Zr523   2.427       .  S
O517        C534   1.290       .  A
O518       Zr523   2.446   1_565  S
O518        C533   1.294       .  A
O519       Zr522   2.446       .  S
O519        C532   1.293       .  A
O520       Zr526   2.444       .  S
O520        C529   1.293   1_455  A
O521       Zr526   2.433   1_545  S
O521        C530   1.292       .  A
Zr522       O528   2.340       .  S
Zr522       O540   2.349       .  S
Zr523       O527   2.332   1_545  S
Zr523       O538   2.342       .  S
Zr524       O528   2.333   1_545  S
Zr524       O538   2.329   1_655  S
Zr525       O527   2.340   1_655  S
Zr525       O540   2.343       .  S
Zr526       O527   2.342       .  S
Zr526       O528   2.333   1_455  S
Zr526       O540   2.339   1_455  S
Zr526       O538   2.345   1_565  S
C529       C2430   1.464       .  S
C530       C1857   1.480       .  S
C531       C1282   1.481       .  S
C532       C2697   1.495       .  S
C533       C1142   1.479       .  S
C534       C2669   1.481       .  S
C535       C1590   1.482       .  S
C536       C1002   1.504       .  S
H537        O538   0.966       .  S
H539        O540   0.966       .  S
C541        C542   1.413       .  A
C541        C546   1.405       .  A
C542        C543   1.401       .  A
C542        N547   1.437   1_655  S
C543        C544   1.397       .  A
C543        H548   1.084   1_655  S
C544        C549   1.471       .  S
C544        C545   1.408       .  A
C545        C546   1.406       .  A
C545        N550   1.438       .  S
C546        H551   1.084       .  S
N547        H567   1.046   1_455  S
N547        H568   1.046       .  S
C549        C552   1.403   1_655  A
C549        C556   1.404       .  A
N550        H565   1.046       .  S
N550        H566   1.045       .  S
C552        C553   1.408       .  A
C552        H557   1.084       .  S
C553        C554   1.413   1_455  A
C553        N558   1.438       .  S
C554        C555   1.406       .  A
C555        C556   1.397       .  A
C555        H559   1.084       .  S
C556        N560   1.438       .  S
N558        H561   1.046       .  S
N558        H562   1.046       .  S
N560        H563   1.046   1_545  S
N560        H564   1.045       .  S
C569        C570   1.416       .  A
C569        C574   1.406       .  A
C570        C571   1.404       .  A
C570        N575   1.439       .  S
C571        C572   1.404       .  A
C571        H576   1.083       .  S
C572        C577   1.491       .  S
C572        C573   1.413       .  A
C573        C574   1.407       .  A
C573        N578   1.438       .  S
C574        H579   1.084       .  S
N575        H595   1.046       .  S
N575        H596   1.046       .  S
C577        C580   1.404       .  A
C577        C584   1.412       .  A
N578        H593   1.046       .  S
N578        H594   1.045       .  S
C580        C581   1.407       .  A
C580        H585   1.083       .  S
C581        C582   1.416       .  A
C581        N586   1.438       .  S
C582        C583   1.406       .  A
C583        C584   1.405       .  A
C583        H587   1.083       .  S
C584        N588   1.438       .  S
N586        H589   1.046       .  S
N586        H590   1.046       .  S
N588        H591   1.046       .  S
N588        H592   1.045       .  S
C597        C598   1.413       .  A
C597        C602   1.407       .  A
C598        C599   1.410       .  A
C598        N603   1.437       .  S
C599        C600   1.404       .  A
C599        H604   1.084       .  S
C600        C605   1.482       .  S
C600        C601   1.408       .  A
C601        C602   1.405       .  A
C601        N606   1.439       .  S
C602        H607   1.084       .  S
N603        H623   1.046       .  S
N603        H624   1.046       .  S
C605        C608   1.402       .  A
C605        C612   1.410       .  A
N606        H621   1.046       .  S
N606        H622   1.044       .  S
C608        C609   1.409       .  A
C608        H613   1.084       .  S
C609        C610   1.413       .  A
C609        N614   1.438       .  S
C610        C611   1.401       .  A
C611        C612   1.406       .  A
C611        H615   1.084       .  S
C612        N616   1.438       .  S
N614        H617   1.046       .  S
N614        H618   1.046       .  S
N616        H619   1.046       .  S
N616        H620   1.044       .  S
C625        C626   1.418       .  A
C625        C630   1.408       .  A
C626        C627   1.408       .  A
C626        N631   1.438       .  S
C627        C628   1.403       .  A
C627        H632   1.083       .  S
C628        C633   1.496       .  S
C628        C629   1.412       .  A
C629        C630   1.410       .  A
C629        N634   1.438       .  S
C630        H635   1.083       .  S
N631        H651   1.046       .  S
N631        H652   1.046       .  S
C633        C636   1.402       .  A
C633        C640   1.413       .  A
N634        H649   1.046       .  S
N634        H650   1.046       .  S
C636        C637   1.407       .  A
C636        H641   1.084       .  S
C637        C638   1.421       .  A
C637        N642   1.439       .  S
C638        C639   1.407       .  A
C639        C640   1.412       .  A
C639        H643   1.083       .  S
C640        N644   1.437       .  S
N642        H645   1.046       .  S
N642        H646   1.046       .  S
N644        H647   1.046       .  S
N644        H648   1.045       .  S
C653        C654   1.417       .  A
C653        C658   1.406       .  A
C654        C655   1.404       .  A
C654        N659   1.437       .  S
C655        C656   1.401       .  A
C655        H660   1.084       .  S
C656        C661   1.485       .  S
C656        C657   1.410       .  A
C657        C658   1.405       .  A
C657        N662   1.438       .  S
C658        H663   1.083       .  S
N659        H679   1.046       .  S
N659        H680   1.046       .  S
C661        C664   1.400       .  A
C661        C668   1.410       .  A
N662        H677   1.046       .  S
N662        H678   1.045       .  S
C664        C665   1.404       .  A
C664        H669   1.084       .  S
C665        C666   1.418       .  A
C665        N670   1.438       .  S
C666        C667   1.407       .  A
C667        C668   1.406       .  A
C667        H671   1.083       .  S
C668        N672   1.438       .  S
N670        H673   1.046       .  S
N670        H674   1.045       .  S
N672        H675   1.046       .  S
N672        H676   1.046       .  S
C681        C682   1.412       .  A
C681        C686   1.404       .  A
C682        C683   1.404       .  A
C682        N687   1.438       .  S
C683        C684   1.401       .  A
C683        H688   1.084       .  S
C684        C689   1.477       .  S
C684        C685   1.408       .  A
C685        C686   1.405       .  A
C685        N690   1.438       .  S
C686        H691   1.084       .  S
N687        H707   1.045       .  S
N687        H708   1.046       .  S
C689        C692   1.400       .  A
C689        C696   1.404       .  A
N690        H705   1.046       .  S
N690        H706   1.046       .  S
C692        C693   1.408       .  A
C692        H697   1.084       .  S
C693        C694   1.420       .  A
C693        N698   1.438       .  S
C694        C695   1.411       .  A
C695        C696   1.403       .  A
C695        H699   1.083       .  S
C696        N700   1.438       .  S
N698        H701   1.046       .  S
N698        H702   1.045       .  S
N700        H703   1.046       .  S
N700        H704   1.046       .  S
C709        C710   1.414       .  A
C709        C714   1.405       .  A
C710        C711   1.406       .  A
C710        N715   1.438   1_455  S
C711        C712   1.402       .  A
C711        H716   1.084   1_455  S
C712        C717   1.484       .  S
C712        C713   1.410       .  A
C713        C714   1.406       .  A
C713        N718   1.438       .  S
C714        H719   1.084       .  S
N715        H735   1.046       .  S
N715        H736   1.046       .  S
C717        C720   1.399       .  A
C717        C724   1.408       .  A
N718        H733   1.046       .  S
N718        H734   1.046       .  S
C720        C721   1.404       .  A
C720        H725   1.084       .  S
C721        C722   1.422       .  A
C721        N726   1.439       .  S
C722        C723   1.410       .  A
C723        C724   1.407       .  A
C723        H727   1.083       .  S
C724        N728   1.438       .  S
N726        H729   1.046       .  S
N726        H730   1.046       .  S
N728        H731   1.046       .  S
N728        H732   1.046       .  S
C737        C738   1.414   1_556  A
C737        C742   1.407       .  A
C738        C739   1.404       .  A
C738        N743   1.438       .  S
C739        C740   1.402       .  A
C739        H744   1.084       .  S
C740        C745   1.484       .  S
C740        C741   1.410   1_554  A
C741        C742   1.406       .  A
C741        N746   1.438       .  S
C742        H747   1.083       .  S
N743        H763   1.045       .  S
N743        H764   1.046       .  S
C745        C748   1.404       .  A
C745        C752   1.410       .  A
N746        H761   1.046       .  S
N746        H762   1.046       .  S
C748        C749   1.407       .  A
C748        H753   1.084       .  S
C749        C750   1.416       .  A
C749        N754   1.439       .  S
C750        C751   1.403       .  A
C751        C752   1.401       .  A
C751        H755   1.084       .  S
C752        N756   1.438       .  S
N754        H757   1.046       .  S
N754        H758   1.046       .  S
N756        H759   1.046       .  S
N756        H760   1.046       .  S
C765        C766   1.416       .  A
C765        C770   1.405       .  A
C766        C767   1.403       .  A
C766        N771   1.436       .  S
C767        C768   1.397       .  A
C767        H772   1.084       .  S
C768        C773   1.473       .  S
C768        C769   1.407       .  A
C769        C770   1.405       .  A
C769        N774   1.438       .  S
C770        H775   1.084       .  S
N771        H791   1.046       .  S
N771        H792   1.046       .  S
C773        C776   1.401       .  A
C773        C780   1.407       .  A
N774        H789   1.046       .  S
N774        H790   1.046       .  S
C776        C777   1.405       .  A
C776        H781   1.084       .  S
C777        C778   1.411       .  A
C777        N782   1.438       .  S
C778        C779   1.404       .  A
C779        C780   1.403       .  A
C779        H783   1.084       .  S
C780        N784   1.438       .  S
N782        H785   1.046       .  S
N782        H786   1.046       .  S
N784        H787   1.046       .  S
N784        H788   1.045       .  S
C793        C794   1.418       .  A
C793        C798   1.408       .  A
C794        C795   1.401       .  A
C794        N799   1.436   1_554  S
C795        C796   1.399       .  A
C795        H800   1.084       .  S
C796        C801   1.486       .  S
C796        C797   1.411       .  A
C797        C798   1.407       .  A
C797        N802   1.438       .  S
C798        H803   1.083       .  S
N799        H819   1.045       .  S
N799        H820   1.046       .  S
C801        C804   1.402       .  A
C801        C808   1.413       .  A
N802        H817   1.046       .  S
N802        H818   1.045   1_655  S
C804        C805   1.403       .  A
C804        H809   1.083       .  S
C805        C806   1.413   1_655  A
C805        N810   1.438   1_655  S
C806        C807   1.403       .  A
C807        C808   1.406   1_455  A
C807        H811   1.084       .  S
C808        N812   1.438       .  S
N810        H813   1.046   1_455  S
N810        H814   1.046   1_455  S
N812        H815   1.046   1_655  S
N812        H816   1.046   1_655  S
C821        C822   1.418       .  A
C821        C826   1.407       .  A
C822        C823   1.405       .  A
C822        N827   1.437       .  S
C823        C824   1.400       .  A
C823        H828   1.084       .  S
C824        C829   1.480       .  S
C824        C825   1.408       .  A
C825        C826   1.404       .  A
C825        N830   1.438       .  S
C826        H831   1.083       .  S
N827        H847   1.046       .  S
N827        H848   1.046       .  S
C829        C832   1.403       .  A
C829        C836   1.408       .  A
N830        H845   1.045       .  S
N830        H846   1.046       .  S
C832        C833   1.406       .  A
C832        H837   1.084       .  S
C833        C834   1.412       .  A
C833        N838   1.438       .  S
C834        C835   1.407       .  A
C835        C836   1.401       .  A
C835        H839   1.084       .  S
C836        N840   1.438       .  S
N838        H841   1.046       .  S
N838        H842   1.046       .  S
N840        H843   1.046       .  S
N840        H844   1.046       .  S
C849        C850   1.417   1_655  A
C849        C854   1.410       .  A
C850        C851   1.400       .  A
C850        N855   1.432       .  S
C851        C852   1.399   1_455  A
C851        H856   1.084       .  S
C852        C857   1.480       .  S
C852        C853   1.408       .  A
C853        C854   1.406       .  A
C853        N858   1.438       .  S
C854        H859   1.083       .  S
N855        H875   1.046       .  S
N855        H876   1.046       .  S
C857        C860   1.402       .  A
C857        C864   1.408       .  A
N858        H873   1.046       .  S
N858        H874   1.046       .  S
C860        C861   1.406       .  A
C860        H865   1.084       .  S
C861        C862   1.416       .  A
C861        N866   1.439       .  S
C862        C863   1.403       .  A
C863        C864   1.402       .  A
C863        H867   1.084   1_655  S
C864        N868   1.438   1_655  S
N866        H869   1.046       .  S
N866        H870   1.045       .  S
N868        H871   1.046       .  S
N868        H872   1.046       .  S
C877        C878   1.416       .  A
C877        C882   1.407       .  A
C878        C879   1.407       .  A
C878        N883   1.438       .  S
C879        C880   1.401       .  A
C879        H884   1.084       .  S
C880        C885   1.485       .  S
C880        C881   1.409       .  A
C881        C882   1.410       .  A
C881        N886   1.437       .  S
C882        H887   1.083       .  S
N883        H903   1.046       .  S
N883        H904   1.046       .  S
C885        C888   1.402       .  A
C885        C892   1.408       .  A
N886        H901   1.046       .  S
N886        H902   1.045       .  S
C888        C889   1.404       .  A
C888        H893   1.084       .  S
C889        C890   1.418       .  A
C889        N894   1.433       .  S
C890        C891   1.408       .  A
C891        C892   1.408       .  A
C891        H895   1.084       .  S
C892        N896   1.438       .  S
N894        H897   1.044       .  S
N894        H898   1.046       .  S
N896        H899   1.046       .  S
N896        H900   1.045       .  S
C905        C906   1.414       .  A
C905        C910   1.408       .  A
C906        C907   1.407       .  A
C906        N911   1.437       .  S
C907        C908   1.401       .  A
C907        H912   1.084       .  S
C908        C913   1.479       .  S
C908        C909   1.408       .  A
C909        C910   1.406       .  A
C909        N914   1.439       .  S
C910        H915   1.083       .  S
N911        H931   1.046       .  S
N911        H932   1.046       .  S
C913        C916   1.401       .  A
C913        C920   1.410       .  A
N914        H929   1.046       .  S
N914        H930   1.044       .  S
C916        C917   1.403       .  A
C916        H921   1.084       .  S
C917        C918   1.413       .  A
C917        N922   1.439       .  S
C918        C919   1.405       .  A
C919        C920   1.408       .  A
C919        H923   1.084       .  S
C920        N924   1.438       .  S
N922        H925   1.046       .  S
N922        H926   1.046       .  S
N924        H927   1.046       .  S
N924        H928   1.044       .  S
C933        C934   1.415       .  A
C933        C938   1.406       .  A
C934        C935   1.406       .  A
C934        N939   1.438       .  S
C935        C936   1.400       .  A
C935        H940   1.084       .  S
C936        C941   1.476       .  S
C936        C937   1.407       .  A
C937        C938   1.405       .  A
C937        N942   1.438       .  S
C938        H943   1.083       .  S
N939        H959   1.046       .  S
N939        H960   1.046       .  S
C941        C944   1.401       .  A
C941        C948   1.408       .  A
N942        H957   1.046       .  S
N942        H958   1.045       .  S
C944        C945   1.405       .  A
C944        H949   1.084       .  S
C945        C946   1.410       .  A
C945        N950   1.438       .  S
C946        C947   1.403       .  A
C947        C948   1.405       .  A
C947        H951   1.084       .  S
C948        N952   1.437       .  S
N950        H953   1.046       .  S
N950        H954   1.046       .  S
N952        H955   1.046       .  S
N952        H956   1.045       .  S
C961        C962   1.417       .  A
C961        C966   1.405       .  A
C962        C963   1.403       .  A
C962        N967   1.438       .  S
C963        C964   1.397       .  A
C963        H968   1.084       .  S
C964        C969   1.473       .  S
C964        C965   1.407       .  A
C965        C966   1.405       .  A
C965        N970   1.438       .  S
C966        H971   1.083       .  S
N967        H987   1.046       .  S
N967        H988   1.046       .  S
C969        C972   1.402       .  A
C969        C976   1.411       .  A
N970        H985   1.046       .  S
N970        H986   1.045       .  S
C972        C973   1.403       .  A
C972        H977   1.084       .  S
C973        C974   1.420       .  A
C973        N978   1.440       .  S
C974        C975   1.405       .  A
C975        C976   1.394       .  A
C975        H979   1.085       .  S
C976        N980   1.439       .  S
N978        H981   1.046       .  S
N978        H982   1.041       .  S
N980        H983   1.046       .  S
N980        H984   1.043       .  S
C989        C990   1.413       .  A
C989        C994   1.404       .  A
C990        C991   1.407       .  A
C990        N995   1.438       .  S
C991        C992   1.406       .  A
C991        H996   1.083       .  S
C992        C997   1.499       .  S
C992        C993   1.415       .  A
C993        C994   1.410       .  A
C993        N998   1.437       .  S
C994        H999   1.084       .  S
N995       H1015   1.045       .  S
N995       H1016   1.046       .  S
C997       C1000   1.404       .  A
C997       C1004   1.413       .  A
N998       H1013   1.046       .  S
N998       H1014   1.046       .  S
C1000      C1001   1.409       .  A
C1000      H1005   1.083       .  S
C1001      C1002   1.422       .  A
C1001      N1006   1.438       .  S
C1002      C1003   1.409       .  A
C1003      C1004   1.408       .  A
C1003      H1007   1.083       .  S
C1004      N1008   1.438       .  S
N1006      H1009   1.046       .  S
N1006      H1010   1.046       .  S
N1008      H1011   1.046       .  S
N1008      H1012   1.045       .  S
C1017      C1018   1.413       .  A
C1017      C1022   1.405       .  A
C1018      C1019   1.403       .  A
C1018      N1023   1.438       .  S
C1019      C1020   1.402       .  A
C1019      H1024   1.084       .  S
C1020      C1025   1.488       .  S
C1020      C1021   1.413       .  A
C1021      C1022   1.407       .  A
C1021      N1026   1.438       .  S
C1022      H1027   1.084       .  S
N1023      H1043   1.045       .  S
N1023      H1044   1.046       .  S
C1025      C1028   1.402       .  A
C1025      C1032   1.410       .  A
N1026      H1041   1.046       .  S
N1026      H1042   1.046       .  S
C1028      C1029   1.407       .  A
C1028      H1033   1.084       .  S
C1029      C1030   1.418       .  A
C1029      N1034   1.437       .  S
C1030      C1031   1.410       .  A
C1031      C1032   1.403       .  A
C1031      H1035   1.083       .  S
C1032      N1036   1.438       .  S
N1034      H1037   1.046       .  S
N1034      H1038   1.044       .  S
N1036      H1039   1.046       .  S
N1036      H1040   1.046       .  S
C1045      C1046   1.424       .  A
C1045      C1050   1.408       .  A
C1046      C1047   1.404       .  A
C1046      N1051   1.439       .  S
C1047      C1048   1.399       .  A
C1047      H1052   1.084       .  S
C1048      C1053   1.488       .  S
C1048      C1049   1.411       .  A
C1049      C1050   1.409       .  A
C1049      N1054   1.437       .  S
C1050      H1055   1.083       .  S
N1051      H1071   1.046       .  S
N1051      H1072   1.046       .  S
C1053      C1056   1.404       .  A
C1053      C1060   1.411       .  A
N1054      H1069   1.046       .  S
N1054      H1070   1.046       .  S
C1056      C1057   1.407       .  A
C1056      H1061   1.084   1_545  S
C1057      C1058   1.414       .  A
C1057      N1062   1.438   1_545  S
C1058      C1059   1.405       .  A
C1059      C1060   1.406       .  A
C1059      H1063   1.084       .  S
C1060      N1064   1.438       .  S
N1062      H1065   1.046       .  S
N1062      H1066   1.046       .  S
N1064      H1067   1.046       .  S
N1064      H1068   1.045       .  S
C1073      C1074   1.412       .  A
C1073      C1078   1.403   1_545  A
C1074      C1075   1.407       .  A
C1074      N1079   1.438       .  S
C1075      C1076   1.401   1_545  A
C1075      H1080   1.084       .  S
C1076      C1081   1.477       .  S
C1076      C1077   1.408       .  A
C1077      C1078   1.404       .  A
C1077      N1082   1.438       .  S
C1078      H1083   1.084       .  S
N1079      H1099   1.046       .  S
N1079      H1100   1.046       .  S
C1081      C1084   1.403       .  A
C1081      C1088   1.406       .  A
N1082      H1097   1.046       .  S
N1082      H1098   1.045       .  S
C1084      C1085   1.409       .  A
C1084      H1089   1.084       .  S
C1085      C1086   1.412       .  A
C1085      N1090   1.437       .  S
C1086      C1087   1.407       .  A
C1087      C1088   1.402       .  A
C1087      H1091   1.084       .  S
C1088      N1092   1.438       .  S
N1090      H1093   1.046       .  S
N1090      H1094   1.046       .  S
N1092      H1095   1.046       .  S
N1092      H1096   1.045       .  S
C1101      C1102   1.417       .  A
C1101      C1106   1.404       .  A
C1102      C1103   1.398       .  A
C1102      N1107   1.438       .  S
C1103      C1104   1.396       .  A
C1103      H1108   1.084       .  S
C1104      C1109   1.471       .  S
C1104      C1105   1.409       .  A
C1105      C1106   1.408       .  A
C1105      N1110   1.437       .  S
C1106      H1111   1.084       .  S
N1107      H1127   1.045       .  S
N1107      H1128   1.046       .  S
C1109      C1112   1.400       .  A
C1109      C1116   1.407       .  A
N1110      H1125   1.046       .  S
N1110      H1126   1.045       .  S
C1112      C1113   1.406       .  A
C1112      H1117   1.084       .  S
C1113      C1114   1.412       .  A
C1113      N1118   1.437       .  S
C1114      C1115   1.404       .  A
C1115      C1116   1.401       .  A
C1115      H1119   1.084       .  S
C1116      N1120   1.438       .  S
N1118      H1121   1.046       .  S
N1118      H1122   1.046       .  S
N1120      H1123   1.046       .  S
N1120      H1124   1.045       .  S
C1129      C1130   1.417       .  A
C1129      C1134   1.407       .  A
C1130      C1131   1.404       .  A
C1130      N1135   1.438   1_565  S
C1131      C1132   1.402       .  A
C1131      H1136   1.084   1_565  S
C1132      C1137   1.490       .  S
C1132      C1133   1.412       .  A
C1133      C1134   1.407       .  A
C1133      N1138   1.438       .  S
C1134      H1139   1.083       .  S
N1135      H1155   1.046       .  S
N1135      H1156   1.046       .  S
C1137      C1140   1.405       .  A
C1137      C1144   1.414       .  A
N1138      H1153   1.046       .  S
N1138      H1154   1.045       .  S
C1140      C1141   1.403       .  A
C1140      H1145   1.084       .  S
C1141      C1142   1.411       .  A
C1141      N1146   1.433       .  S
C1142      C1143   1.403       .  A
C1143      C1144   1.405       .  A
C1143      H1147   1.084   1_565  S
C1144      N1148   1.438   1_565  S
N1146      H1149   1.046       .  S
N1146      H1150   1.046       .  S
N1148      H1151   1.046       .  S
N1148      H1152   1.045   1_545  S
C1157      C1158   1.410       .  A
C1157      C1162   1.405       .  A
C1158      C1159   1.405       .  A
C1158      N1163   1.436       .  S
C1159      C1160   1.402       .  A
C1159      H1164   1.084       .  S
C1160      C1165   1.475       .  S
C1160      C1161   1.409       .  A
C1161      C1162   1.403       .  A
C1161      N1166   1.439       .  S
C1162      H1167   1.084       .  S
N1163      H1183   1.045       .  S
N1163      H1184   1.045       .  S
C1165      C1168   1.399       .  A
C1165      C1172   1.410       .  A
N1166      H1181   1.046       .  S
N1166      H1182   1.043       .  S
C1168      C1169   1.400       .  A
C1168      H1173   1.084       .  S
C1169      C1170   1.411       .  A
C1169      N1174   1.432       .  S
C1170      C1171   1.405       .  A
C1171      C1172   1.408       .  A
C1171      H1175   1.084       .  S
C1172      N1176   1.439       .  S
N1174      H1177   1.045       .  S
N1174      H1178   1.046       .  S
N1176      H1179   1.046       .  S
N1176      H1180   1.043       .  S
C1185      C1186   1.414       .  A
C1185      C1190   1.407       .  A
C1186      C1187   1.401       .  A
C1186      N1191   1.431       .  S
C1187      C1188   1.401       .  A
C1187      H1192   1.084       .  S
C1188      C1193   1.477       .  S
C1188      C1189   1.407       .  A
C1189      C1190   1.402       .  A
C1189      N1194   1.438       .  S
C1190      H1195   1.083       .  S
N1191      H1211   1.046       .  S
N1191      H1212   1.046       .  S
C1193      C1196   1.400       .  A
C1193      C1200   1.406       .  A
N1194      H1209   1.046       .  S
N1194      H1210   1.046       .  S
C1196      C1197   1.395       .  A
C1196      H1201   1.084       .  S
C1197      C1198   1.422       .  A
C1197      N1202   1.433       .  S
C1198      C1199   1.410       .  A
C1199      C1200   1.403       .  A
C1199      H1203   1.083       .  S
C1200      N1204   1.438       .  S
N1202      H1205   1.044       .  S
N1202      H1206   1.045       .  S
N1204      H1207   1.046       .  S
N1204      H1208   1.046       .  S
C1213      C1214   1.412       .  A
C1213      C1218   1.406       .  A
C1214      C1215   1.404       .  A
C1214      N1219   1.438       .  S
C1215      C1216   1.402       .  A
C1215      H1220   1.084       .  S
C1216      C1221   1.480       .  S
C1216      C1217   1.409       .  A
C1217      C1218   1.405       .  A
C1217      N1222   1.438       .  S
C1218      H1223   1.084       .  S
N1219      H1239   1.046       .  S
N1219      H1240   1.046       .  S
C1221      C1224   1.400       .  A
C1221      C1228   1.408       .  A
N1222      H1237   1.046       .  S
N1222      H1238   1.046       .  S
C1224      C1225   1.404       .  A
C1224      H1229   1.084       .  S
C1225      C1226   1.418       .  A
C1225      N1230   1.438       .  S
C1226      C1227   1.405       .  A
C1227      C1228   1.405       .  A
C1227      H1231   1.083       .  S
C1228      N1232   1.438       .  S
N1230      H1233   1.046       .  S
N1230      H1234   1.046       .  S
N1232      H1235   1.046       .  S
N1232      H1236   1.046       .  S
C1241      C1242   1.413       .  A
C1241      C1246   1.409       .  A
C1242      C1243   1.404       .  A
C1242      N1247   1.432       .  S
C1243      C1244   1.403       .  A
C1243      H1248   1.084       .  S
C1244      C1249   1.486       .  S
C1244      C1245   1.410       .  A
C1245      C1246   1.405       .  A
C1245      N1250   1.438       .  S
C1246      H1251   1.083   1_545  S
N1247      H1267   1.046       .  S
N1247      H1268   1.046       .  S
C1249      C1252   1.405       .  A
C1249      C1256   1.410       .  A
N1250      H1265   1.046       .  S
N1250      H1266   1.046       .  S
C1252      C1253   1.409       .  A
C1252      H1257   1.084       .  S
C1253      C1254   1.414       .  A
C1253      N1258   1.438       .  S
C1254      C1255   1.407       .  A
C1255      C1256   1.403       .  A
C1255      H1259   1.084       .  S
C1256      N1260   1.439       .  S
N1258      H1261   1.046       .  S
N1258      H1262   1.046       .  S
N1260      H1263   1.046       .  S
N1260      H1264   1.046       .  S
C1269      C1270   1.417       .  A
C1269      C1274   1.410       .  A
C1270      C1271   1.407       .  A
C1270      N1275   1.437   1_565  S
C1271      C1272   1.402       .  A
C1271      H1276   1.084   1_565  S
C1272      C1277   1.482       .  S
C1272      C1273   1.406       .  A
C1273      C1274   1.402       .  A
C1273      N1278   1.438       .  S
C1274      H1279   1.083       .  S
N1275      H1295   1.046       .  S
N1275      H1296   1.046       .  S
C1277      C1280   1.404       .  A
C1277      C1284   1.408       .  A
N1278      H1293   1.046       .  S
N1278      H1294   1.046       .  S
C1280      C1281   1.406       .  A
C1280      H1285   1.084       .  S
C1281      C1282   1.412       .  A
C1281      N1286   1.438       .  S
C1282      C1283   1.407       .  A
C1283      C1284   1.403       .  A
C1283      H1287   1.084   1_565  S
C1284      N1288   1.438   1_565  S
N1286      H1289   1.046       .  S
N1286      H1290   1.046       .  S
N1288      H1291   1.046       .  S
N1288      H1292   1.046       .  S
C1297      C1298   1.413       .  A
C1297      C1302   1.405       .  A
C1298      C1299   1.399       .  A
C1298      N1303   1.431       .  S
C1299      C1300   1.397       .  A
C1299      H1304   1.084       .  S
C1300      C1305   1.476       .  S
C1300      C1301   1.409       .  A
C1301      C1302   1.408       .  A
C1301      N1306   1.437       .  S
C1302      H1307   1.083       .  S
N1303      H1323   1.045       .  S
N1303      H1324   1.046       .  S
C1305      C1308   1.404       .  A
C1305      C1312   1.414       .  A
N1306      H1321   1.045       .  S
N1306      H1322   1.045       .  S
C1308      C1309   1.404       .  A
C1308      H1313   1.084       .  S
C1309      C1310   1.408       .  A
C1309      N1314   1.432       .  S
C1310      C1311   1.407       .  A
C1311      C1312   1.397       .  A
C1311      H1315   1.084       .  S
C1312      N1316   1.440       .  S
N1314      H1317   1.046       .  S
N1314      H1318   1.046       .  S
N1316      H1319   1.046       .  S
N1316      H1320   1.043       .  S
C1325      C1326   1.415       .  A
C1325      C1330   1.404       .  A
C1326      C1327   1.405       .  A
C1326      N1331   1.438       .  S
C1327      C1328   1.399       .  A
C1327      H1332   1.084       .  S
C1328      C1333   1.476       .  S
C1328      C1329   1.408       .  A
C1329      C1330   1.405       .  A
C1329      N1334   1.438       .  S
C1330      H1335   1.084       .  S
N1331      H1351   1.046       .  S
N1331      H1352   1.046       .  S
C1333      C1336   1.402       .  A
C1333      C1340   1.405       .  A
N1334      H1349   1.045       .  S
N1334      H1350   1.045       .  S
C1336      C1337   1.408       .  A
C1336      H1341   1.084       .  S
C1337      C1338   1.413       .  A
C1337      N1342   1.437       .  S
C1338      C1339   1.408       .  A
C1339      C1340   1.401       .  A
C1339      H1343   1.084       .  S
C1340      N1344   1.438       .  S
N1342      H1345   1.046       .  S
N1342      H1346   1.045       .  S
N1344      H1347   1.046       .  S
N1344      H1348   1.045       .  S
C1353      C1354   1.415       .  A
C1353      C1358   1.407       .  A
C1354      C1355   1.403       .  A
C1354      N1359   1.438       .  S
C1355      C1356   1.400       .  A
C1355      H1360   1.084       .  S
C1356      C1361   1.474       .  S
C1356      C1357   1.406       .  A
C1357      C1358   1.401       .  A
C1357      N1362   1.438       .  S
C1358      H1363   1.083       .  S
N1359      H1379   1.046       .  S
N1359      H1380   1.046       .  S
C1361      C1364   1.399       .  A
C1361      C1368   1.407       .  A
N1362      H1377   1.046       .  S
N1362      H1378   1.046       .  S
C1364      C1365   1.400       .  A
C1364      H1369   1.084       .  S
C1365      C1366   1.414       .  A
C1365      N1370   1.436       .  S
C1366      C1367   1.405       .  A
C1367      C1368   1.403       .  A
C1367      H1371   1.084       .  S
C1368      N1372   1.438       .  S
N1370      H1373   1.046       .  S
N1370      H1374   1.046       .  S
N1372      H1375   1.046       .  S
N1372      H1376   1.046       .  S
C1381      C1382   1.417   1_565  A
C1381      C1386   1.407       .  A
C1382      C1383   1.408       .  A
C1382      N1387   1.438       .  S
C1383      C1384   1.403   1_545  A
C1383      H1388   1.084       .  S
C1384      C1389   1.486       .  S
C1384      C1385   1.409       .  A
C1385      C1386   1.404       .  A
C1385      N1390   1.438       .  S
C1386      H1391   1.083       .  S
N1387      H1407   1.046       .  S
N1387      H1408   1.046       .  S
C1389      C1392   1.401       .  A
C1389      C1396   1.410   1_565  A
N1390      H1405   1.046       .  S
N1390      H1406   1.046       .  S
C1392      C1393   1.406       .  A
C1392      H1397   1.084       .  S
C1393      C1394   1.418       .  A
C1393      N1398   1.439       .  S
C1394      C1395   1.406   1_565  A
C1395      C1396   1.408       .  A
C1395      H1399   1.083       .  S
C1396      N1400   1.438       .  S
N1398      H1401   1.046       .  S
N1398      H1402   1.046       .  S
N1400      H1403   1.045       .  S
N1400      H1404   1.046       .  S
C1409      C1410   1.418       .  A
C1409      C1414   1.407       .  A
C1410      C1411   1.408       .  A
C1410      N1415   1.438       .  S
C1411      C1412   1.401       .  A
C1411      H1416   1.084       .  S
C1412      C1417   1.482       .  S
C1412      C1413   1.407       .  A
C1413      C1414   1.404       .  A
C1413      N1418   1.438       .  S
C1414      H1419   1.083       .  S
N1415      H1435   1.046       .  S
N1415      H1436   1.046       .  S
C1417      C1420   1.404       .  A
C1417      C1424   1.407       .  A
N1418      H1433   1.045       .  S
N1418      H1434   1.046       .  S
C1420      C1421   1.409       .  A
C1420      H1425   1.084       .  S
C1421      C1422   1.413       .  A
C1421      N1426   1.437       .  S
C1422      C1423   1.407       .  A
C1423      C1424   1.403       .  A
C1423      H1427   1.084       .  S
C1424      N1428   1.438       .  S
N1426      H1429   1.046       .  S
N1426      H1430   1.046       .  S
N1428      H1431   1.046       .  S
N1428      H1432   1.046       .  S
C1437      C1438   1.415       .  A
C1437      C1442   1.404       .  A
C1438      C1439   1.408       .  A
C1438      N1443   1.438       .  S
C1439      C1440   1.404       .  A
C1439      H1444   1.084       .  S
C1440      C1445   1.487       .  S
C1440      C1441   1.410       .  A
C1441      C1442   1.404       .  A
C1441      N1446   1.438       .  S
C1442      H1447   1.084       .  S
N1443      H1463   1.045       .  S
N1443      H1464   1.046       .  S
C1445      C1448   1.405       .  A
C1445      C1452   1.409       .  A
N1446      H1461   1.045       .  S
N1446      H1462   1.046       .  S
C1448      C1449   1.406       .  A
C1448      H1453   1.084       .  S
C1449      C1450   1.413       .  A
C1449      N1454   1.437       .  S
C1450      C1451   1.408       .  A
C1451      C1452   1.404       .  A
C1451      H1455   1.084       .  S
C1452      N1456   1.438       .  S
N1454      H1457   1.046       .  S
N1454      H1458   1.045       .  S
N1456      H1459   1.046       .  S
N1456      H1460   1.046       .  S
C1465      C1466   1.411       .  A
C1465      C1470   1.403       .  A
C1466      C1467   1.401       .  A
C1466      N1471   1.433       .  S
C1467      C1468   1.401   1_655  A
C1467      H1472   1.084       .  S
C1468      C1473   1.482       .  S
C1468      C1469   1.413       .  A
C1469      C1470   1.406   1_455  A
C1469      N1474   1.438       .  S
C1470      H1475   1.084       .  S
N1471      H1491   1.046       .  S
N1471      H1492   1.045       .  S
C1473      C1476   1.401       .  A
C1473      C1480   1.410       .  A
N1474      H1489   1.046       .  S
N1474      H1490   1.046       .  S
C1476      C1477   1.404       .  A
C1476      H1481   1.084       .  S
C1477      C1478   1.418       .  A
C1477      N1482   1.439       .  S
C1478      C1479   1.406       .  A
C1479      C1480   1.404       .  A
C1479      H1483   1.083       .  S
C1480      N1484   1.438       .  S
N1482      H1485   1.046       .  S
N1482      H1486   1.046       .  S
N1484      H1487   1.045       .  S
N1484      H1488   1.045       .  S
C1493      C1494   1.412       .  A
C1493      C1498   1.405       .  A
C1494      C1495   1.403       .  A
C1494      N1499   1.432       .  S
C1495      C1496   1.404       .  A
C1495      H1500   1.084       .  S
C1496      C1501   1.489       .  S
C1496      C1497   1.413       .  A
C1497      C1498   1.406       .  A
C1497      N1502   1.438       .  S
C1498      H1503   1.083       .  S
N1499      H1519   1.045       .  S
N1499      H1520   1.046       .  S
C1501      C1504   1.405       .  A
C1501      C1508   1.412       .  A
N1502      H1517   1.046       .  S
N1502      H1518   1.045       .  S
C1504      C1505   1.407       .  A
C1504      H1509   1.083       .  S
C1505      C1506   1.413       .  A
C1505      N1510   1.438       .  S
C1506      C1507   1.405       .  A
C1507      C1508   1.404       .  A
C1507      H1511   1.084       .  S
C1508      N1512   1.438       .  S
N1510      H1513   1.046       .  S
N1510      H1514   1.046       .  S
N1512      H1515   1.046       .  S
N1512      H1516   1.045       .  S
C1521      C1522   1.417       .  A
C1521      C1526   1.406       .  A
C1522      C1523   1.406       .  A
C1522      N1527   1.439       .  S
C1523      C1524   1.403       .  A
C1523      H1528   1.084       .  S
C1524      C1529   1.493       .  S
C1524      C1525   1.412       .  A
C1525      C1526   1.409       .  A
C1525      N1530   1.437       .  S
C1526      H1531   1.083       .  S
N1527      H1547   1.046       .  S
N1527      H1548   1.046       .  S
C1529      C1532   1.404       .  A
C1529      C1536   1.411       .  A
N1530      H1545   1.046       .  S
N1530      H1546   1.045       .  S
C1532      C1533   1.408       .  A
C1532      H1537   1.084       .  S
C1533      C1534   1.417       .  A
C1533      N1538   1.438       .  S
C1534      C1535   1.407       .  A
C1535      C1536   1.407       .  A
C1535      H1539   1.083   1_655  S
C1536      N1540   1.438       .  S
N1538      H1541   1.046       .  S
N1538      H1542   1.046       .  S
N1540      H1543   1.046       .  S
N1540      H1544   1.045       .  S
C1549      C1550   1.414       .  A
C1549      C1554   1.405       .  A
C1550      C1551   1.408       .  A
C1550      N1555   1.437       .  S
C1551      C1552   1.402       .  A
C1551      H1556   1.084       .  S
C1552      C1557   1.485       .  S
C1552      C1553   1.409       .  A
C1553      C1554   1.407       .  A
C1553      N1558   1.438       .  S
C1554      H1559   1.084       .  S
N1555      H1575   1.046       .  S
N1555      H1576   1.046       .  S
C1557      C1560   1.400       .  A
C1557      C1564   1.410       .  A
N1558      H1573   1.046       .  S
N1558      H1574   1.046       .  S
C1560      C1561   1.407       .  A
C1560      H1565   1.084       .  S
C1561      C1562   1.418       .  A
C1561      N1566   1.439       .  S
C1562      C1563   1.405       .  A
C1563      C1564   1.408       .  A
C1563      H1567   1.084       .  S
C1564      N1568   1.437       .  S
N1566      H1569   1.045       .  S
N1566      H1570   1.045       .  S
N1568      H1571   1.046       .  S
N1568      H1572   1.046       .  S
C1577      C1578   1.416       .  A
C1577      C1582   1.409       .  A
C1578      C1579   1.402       .  A
C1578      N1583   1.432       .  S
C1579      C1580   1.399       .  A
C1579      H1584   1.084       .  S
C1580      C1585   1.481       .  S
C1580      C1581   1.409       .  A
C1581      C1582   1.408       .  A
C1581      N1586   1.438       .  S
C1582      H1587   1.083       .  S
N1583      H1603   1.046       .  S
N1583      H1604   1.046       .  S
C1585      C1588   1.401       .  A
C1585      C1592   1.409       .  A
N1586      H1601   1.046       .  S
N1586      H1602   1.046       .  S
C1588      C1589   1.404       .  A
C1588      H1593   1.084       .  S
C1589      C1590   1.414       .  A
C1589      N1594   1.438       .  S
C1590      C1591   1.406       .  A
C1591      C1592   1.406       .  A
C1591      H1595   1.084   1_545  S
C1592      N1596   1.438       .  S
N1594      H1597   1.046       .  S
N1594      H1598   1.046       .  S
N1596      H1599   1.046   1_545  S
N1596      H1600   1.046       .  S
C1605      C1606   1.415       .  A
C1605      C1610   1.409       .  A
C1606      C1607   1.408       .  A
C1606      N1611   1.432       .  S
C1607      C1608   1.403       .  A
C1607      H1612   1.084       .  S
C1608      C1613   1.488       .  S
C1608      C1609   1.409       .  A
C1609      C1610   1.407       .  A
C1609      N1614   1.438       .  S
C1610      H1615   1.083       .  S
N1611      H1631   1.046       .  S
N1611      H1632   1.046       .  S
C1613      C1616   1.402       .  A
C1613      C1620   1.410       .  A
N1614      H1629   1.046       .  S
N1614      H1630   1.046       .  S
C1616      C1617   1.409       .  A
C1616      H1621   1.084       .  S
C1617      C1618   1.417       .  A
C1617      N1622   1.438       .  S
C1618      C1619   1.405       .  A
C1619      C1620   1.408       .  A
C1619      H1623   1.083       .  S
C1620      N1624   1.438       .  S
N1622      H1625   1.046       .  S
N1622      H1626   1.046       .  S
N1624      H1627   1.046       .  S
N1624      H1628   1.046       .  S
C1633      C1634   1.416       .  A
C1633      C1638   1.408       .  A
C1634      C1635   1.409       .  A
C1634      N1639   1.438       .  S
C1635      C1636   1.402       .  A
C1635      H1640   1.084       .  S
C1636      C1641   1.484       .  S
C1636      C1637   1.409       .  A
C1637      C1638   1.407       .  A
C1637      N1642   1.439       .  S
C1638      H1643   1.083       .  S
N1639      H1659   1.046       .  S
N1639      H1660   1.046       .  S
C1641      C1644   1.402       .  A
C1641      C1648   1.411       .  A
N1642      H1657   1.046       .  S
N1642      H1658   1.043       .  S
C1644      C1645   1.407       .  A
C1644      H1649   1.084       .  S
C1645      C1646   1.412       .  A
C1645      N1650   1.437       .  S
C1646      C1647   1.405       .  A
C1647      C1648   1.408       .  A
C1647      H1651   1.084       .  S
C1648      N1652   1.438       .  S
N1650      H1653   1.046       .  S
N1650      H1654   1.046       .  S
N1652      H1655   1.046       .  S
N1652      H1656   1.043       .  S
C1661      C1662   1.411       .  A
C1661      C1666   1.404       .  A
C1662      C1663   1.403       .  A
C1662      N1667   1.437       .  S
C1663      C1664   1.402       .  A
C1663      H1668   1.084       .  S
C1664      C1669   1.480       .  S
C1664      C1665   1.410       .  A
C1665      C1666   1.405       .  A
C1665      N1670   1.438       .  S
C1666      H1671   1.084       .  S
N1667      H1687   1.046       .  S
N1667      H1688   1.046       .  S
C1669      C1672   1.397       .  A
C1669      C1676   1.409       .  A
N1670      H1685   1.046       .  S
N1670      H1686   1.046       .  S
C1672      C1673   1.398       .  A
C1672      H1677   1.084       .  S
C1673      C1674   1.420       .  A
C1673      N1678   1.434       .  S
C1674      C1675   1.408       .  A
C1675      C1676   1.406       .  A
C1675      H1679   1.083       .  S
C1676      N1680   1.437       .  S
N1678      H1681   1.046       .  S
N1678      H1682   1.046       .  S
N1680      H1683   1.046   1_554  S
N1680      H1684   1.046       .  S
C1689      C1690   1.421       .  A
C1689      C1694   1.409       .  A
C1690      C1691   1.406       .  A
C1690      N1695   1.438       .  S
C1691      C1692   1.402       .  A
C1691      H1696   1.084       .  S
C1692      C1697   1.488       .  S
C1692      C1693   1.409       .  A
C1693      C1694   1.404       .  A
C1693      N1698   1.438       .  S
C1694      H1699   1.083       .  S
N1695      H1715   1.046       .  S
N1695      H1716   1.046       .  S
C1697      C1700   1.404       .  A
C1697      C1704   1.411       .  A
N1698      H1713   1.046       .  S
N1698      H1714   1.046       .  S
C1700      C1701   1.405       .  A
C1700      H1705   1.084       .  S
C1701      C1702   1.414       .  A
C1701      N1706   1.438       .  S
C1702      C1703   1.406       .  A
C1703      C1704   1.404       .  A
C1703      H1707   1.084       .  S
C1704      N1708   1.438       .  S
N1706      H1709   1.046       .  S
N1706      H1710   1.045       .  S
N1708      H1711   1.046       .  S
N1708      H1712   1.045       .  S
C1717      C1718   1.414       .  A
C1717      C1722   1.405       .  A
C1718      C1719   1.408       .  A
C1718      N1723   1.437       .  S
C1719      C1720   1.402       .  A
C1719      H1724   1.084       .  S
C1720      C1725   1.476       .  S
C1720      C1721   1.406       .  A
C1721      C1722   1.402       .  A
C1721      N1726   1.438       .  S
C1722      H1727   1.084       .  S
N1723      H1743   1.046       .  S
N1723      H1744   1.046       .  S
C1725      C1728   1.401       .  A
C1725      C1732   1.409       .  A
N1726      H1741   1.045       .  S
N1726      H1742   1.046       .  S
C1728      C1729   1.402       .  A
C1728      H1733   1.084       .  S
C1729      C1730   1.411       .  A
C1729      N1734   1.439       .  S
C1730      C1731   1.402       .  A
C1731      C1732   1.405       .  A
C1731      H1735   1.084       .  S
C1732      N1736   1.437       .  S
N1734      H1737   1.046       .  S
N1734      H1738   1.046       .  S
N1736      H1739   1.046       .  S
N1736      H1740   1.046       .  S
C1745      C1746   1.410       .  A
C1745      C1750   1.404   1_556  A
C1746      C1747   1.404       .  A
C1746      N1751   1.432       .  S
C1747      C1748   1.405   1_556  A
C1747      H1752   1.084       .  S
C1748      C1753   1.493       .  S
C1748      C1749   1.413       .  A
C1749      C1750   1.410       .  A
C1749      N1754   1.437       .  S
C1750      H1755   1.084       .  S
N1751      H1771   1.045       .  S
N1751      H1772   1.046       .  S
C1753      C1756   1.403       .  A
C1753      C1760   1.410       .  A
N1754      H1769   1.046       .  S
N1754      H1770   1.046       .  S
C1756      C1757   1.409       .  A
C1756      H1761   1.083       .  S
C1757      C1758   1.420       .  A
C1757      N1762   1.438   1_545  S
C1758      C1759   1.411       .  A
C1759      C1760   1.408       .  A
C1759      H1763   1.083       .  S
C1760      N1764   1.438   1_554  S
N1762      H1765   1.046       .  S
N1762      H1766   1.046   1_565  S
N1764      H1767   1.046       .  S
N1764      H1768   1.046   1_556  S
C1773      C1774   1.416       .  A
C1773      C1778   1.407       .  A
C1774      C1775   1.406       .  A
C1774      N1779   1.437       .  S
C1775      C1776   1.400       .  A
C1775      H1780   1.084       .  S
C1776      C1781   1.480       .  S
C1776      C1777   1.408       .  A
C1777      C1778   1.406       .  A
C1777      N1782   1.438       .  S
C1778      H1783   1.084       .  S
N1779      H1799   1.046       .  S
N1779      H1800   1.046       .  S
C1781      C1784   1.399       .  A
C1781      C1788   1.410   1_565  A
N1782      H1797   1.046       .  S
N1782      H1798   1.044       .  S
C1784      C1785   1.405   1_554  A
C1784      H1789   1.084   1_554  S
C1785      C1786   1.416   1_566  A
C1785      N1790   1.438       .  S
C1786      C1787   1.405       .  A
C1787      C1788   1.409       .  A
C1787      H1791   1.084       .  S
C1788      N1792   1.438       .  S
N1790      H1793   1.046       .  S
N1790      H1794   1.045       .  S
N1792      H1795   1.046       .  S
N1792      H1796   1.044   1_545  S
C1801      C1802   1.417       .  A
C1801      C1806   1.402       .  A
C1802      C1803   1.406       .  A
C1802      N1807   1.439       .  S
C1803      C1804   1.402       .  A
C1803      H1808   1.084       .  S
C1804      C1809   1.481       .  S
C1804      C1805   1.410       .  A
C1805      C1806   1.402       .  A
C1805      N1810   1.438       .  S
C1806      H1811   1.084       .  S
N1807      H1827   1.045       .  S
N1807      H1828   1.046       .  S
C1809      C1812   1.401       .  A
C1809      C1816   1.408       .  A
N1810      H1825   1.046       .  S
N1810      H1826   1.046       .  S
C1812      C1813   1.404       .  A
C1812      H1817   1.084       .  S
C1813      C1814   1.415       .  A
C1813      N1818   1.437       .  S
C1814      C1815   1.410       .  A
C1815      C1816   1.404       .  A
C1815      H1819   1.083       .  S
C1816      N1820   1.438       .  S
N1818      H1821   1.046       .  S
N1818      H1822   1.045       .  S
N1820      H1823   1.046       .  S
N1820      H1824   1.046       .  S
C1829      C1830   1.416       .  A
C1829      C1834   1.407       .  A
C1830      C1831   1.406       .  A
C1830      N1835   1.438       .  S
C1831      C1832   1.402       .  A
C1831      H1836   1.084       .  S
C1832      C1837   1.488       .  S
C1832      C1833   1.411       .  A
C1833      C1834   1.408       .  A
C1833      N1838   1.438       .  S
C1834      H1839   1.083       .  S
N1835      H1855   1.046       .  S
N1835      H1856   1.045       .  S
C1837      C1840   1.404       .  A
C1837      C1844   1.411       .  A
N1838      H1853   1.046       .  S
N1838      H1854   1.045       .  S
C1840      C1841   1.411       .  A
C1840      H1845   1.084       .  S
C1841      C1842   1.414       .  A
C1841      N1846   1.437       .  S
C1842      C1843   1.404       .  A
C1843      C1844   1.405       .  A
C1843      H1847   1.084       .  S
C1844      N1848   1.438       .  S
N1846      H1849   1.046       .  S
N1846      H1850   1.046       .  S
N1848      H1851   1.046       .  S
N1848      H1852   1.046       .  S
C1857      C1858   1.410       .  A
C1857      C1862   1.406       .  A
C1858      C1859   1.403       .  A
C1858      N1863   1.432       .  S
C1859      C1860   1.403       .  A
C1859      H1864   1.084       .  S
C1860      C1865   1.481       .  S
C1860      C1861   1.411       .  A
C1861      C1862   1.403       .  A
C1861      N1866   1.439       .  S
C1862      H1867   1.084       .  S
N1863      H1883   1.046       .  S
N1863      H1884   1.046       .  S
C1865      C1868   1.402       .  A
C1865      C1872   1.410       .  A
N1866      H1881   1.046       .  S
N1866      H1882   1.046       .  S
C1868      C1869   1.402       .  A
C1868      H1873   1.084       .  S
C1869      C1870   1.412       .  A
C1869      N1874   1.432       .  S
C1870      C1871   1.408       .  A
C1871      C1872   1.404       .  A
C1871      H1875   1.083       .  S
C1872      N1876   1.438       .  S
N1874      H1877   1.046       .  S
N1874      H1878   1.046       .  S
N1876      H1879   1.046       .  S
N1876      H1880   1.046       .  S
C1885      C1886   1.410       .  A
C1885      C1890   1.405       .  A
C1886      C1887   1.404       .  A
C1886      N1891   1.432       .  S
C1887      C1888   1.403       .  A
C1887      H1892   1.084       .  S
C1888      C1893   1.482       .  S
C1888      C1889   1.409       .  A
C1889      C1890   1.404       .  A
C1889      N1894   1.438       .  S
C1890      H1895   1.084       .  S
N1891      H1911   1.045       .  S
N1891      H1912   1.046       .  S
C1893      C1896   1.402       .  A
C1893      C1900   1.406       .  A
N1894      H1909   1.046       .  S
N1894      H1910   1.046       .  S
C1896      C1897   1.409       .  A
C1896      H1901   1.084       .  S
C1897      C1898   1.417       .  A
C1897      N1902   1.438       .  S
C1898      C1899   1.410       .  A
C1899      C1900   1.404       .  A
C1899      H1903   1.081       .  S
C1900      N1904   1.438       .  S
N1902      H1905   1.046       .  S
N1902      H1906   1.046       .  S
N1904      H1907   1.046       .  S
N1904      H1908   1.046       .  S
C1913      C1914   1.412       .  A
C1913      C1918   1.405       .  A
C1914      C1915   1.404       .  A
C1914      N1919   1.438       .  S
C1915      C1916   1.403       .  A
C1915      H1920   1.084       .  S
C1916      C1921   1.478       .  S
C1916      C1917   1.408       .  A
C1917      C1918   1.401       .  A
C1917      N1922   1.438       .  S
C1918      H1923   1.084       .  S
N1919      H1939   1.046       .  S
N1919      H1940   1.046       .  S
C1921      C1924   1.401       .  A
C1921      C1928   1.407       .  A
N1922      H1937   1.046       .  S
N1922      H1938   1.046       .  S
C1924      C1925   1.404       .  A
C1924      H1929   1.084       .  S
C1925      C1926   1.416       .  A
C1925      N1930   1.438       .  S
C1926      C1927   1.407       .  A
C1927      C1928   1.402       .  A
C1927      H1931   1.083       .  S
C1928      N1932   1.438       .  S
N1930      H1933   1.046       .  S
N1930      H1934   1.046       .  S
N1932      H1935   1.046       .  S
N1932      H1936   1.046       .  S
C1941      C1942   1.415       .  A
C1941      C1946   1.405       .  A
C1942      C1943   1.399       .  A
C1942      N1947   1.433       .  S
C1943      C1944   1.398       .  A
C1943      H1948   1.084       .  S
C1944      C1949   1.475       .  S
C1944      C1945   1.409       .  A
C1945      C1946   1.404       .  A
C1945      N1950   1.438       .  S
C1946      H1951   1.084       .  S
N1947      H1967   1.046       .  S
N1947      H1968   1.046       .  S
C1949      C1952   1.398       .  A
C1949      C1956   1.408       .  A
N1950      H1965   1.046       .  S
N1950      H1966   1.046       .  S
C1952      C1953   1.397       .  A
C1952      H1957   1.084       .  S
C1953      C1954   1.416       .  A
C1953      N1958   1.433       .  S
C1954      C1955   1.407       .  A
C1955      C1956   1.405       .  A
C1955      H1959   1.083       .  S
C1956      N1960   1.438       .  S
N1958      H1961   1.046       .  S
N1958      H1962   1.046       .  S
N1960      H1963   1.046       .  S
N1960      H1964   1.045       .  S
C1969      C1970   1.411       .  A
C1969      C1974   1.403       .  A
C1970      C1971   1.401       .  A
C1970      N1975   1.438       .  S
C1971      C1972   1.398   1_655  A
C1971      H1976   1.084       .  S
C1972      C1977   1.469       .  S
C1972      C1973   1.409       .  A
C1973      C1974   1.404   1_455  A
C1973      N1978   1.438       .  S
C1974      H1979   1.084       .  S
N1975      H1995   1.046       .  S
N1975      H1996   1.046       .  S
C1977      C1980   1.399       .  A
C1977      C1984   1.408       .  A
N1978      H1993   1.045       .  S
N1978      H1994   1.044       .  S
C1980      C1981   1.401       .  A
C1980      H1985   1.084       .  S
C1981      C1982   1.414       .  A
C1981      N1986   1.439       .  S
C1982      C1983   1.404       .  A
C1983      C1984   1.403       .  A
C1983      H1987   1.084       .  S
C1984      N1988   1.438       .  S
N1986      H1989   1.046       .  S
N1986      H1990   1.046       .  S
N1988      H1991   1.046       .  S
N1988      H1992   1.044       .  S
C1997      C1998   1.413       .  A
C1997      C2002   1.402       .  A
C1998      C1999   1.406       .  A
C1998      N2003   1.438       .  S
C1999      C2000   1.402       .  A
C1999      H2004   1.084       .  S
C2000      C2005   1.477       .  S
C2000      C2001   1.408       .  A
C2001      C2002   1.401       .  A
C2001      N2006   1.438       .  S
C2002      H2007   1.081       .  S
N2003      H2023   1.046       .  S
N2003      H2024   1.046       .  S
C2005      C2008   1.399       .  A
C2005      C2012   1.409       .  A
N2006      H2021   1.045       .  S
N2006      H2022   1.046       .  S
C2008      C2009   1.404       .  A
C2008      H2013   1.084       .  S
C2009      C2010   1.417       .  A
C2009      N2014   1.438       .  S
C2010      C2011   1.405       .  A
C2011      C2012   1.405       .  A
C2011      H2015   1.083       .  S
C2012      N2016   1.438       .  S
N2014      H2017   1.046       .  S
N2014      H2018   1.046       .  S
N2016      H2019   1.046       .  S
N2016      H2020   1.046       .  S
C2025      C2026   1.411       .  A
C2025      C2030   1.403       .  A
C2026      C2027   1.407       .  A
C2026      N2031   1.438       .  S
C2027      C2028   1.406       .  A
C2027      H2032   1.084       .  S
C2028      C2033   1.486       .  S
C2028      C2029   1.410       .  A
C2029      C2030   1.405       .  A
C2029      N2034   1.438       .  S
C2030      H2035   1.084       .  S
N2031      H2051   1.046       .  S
N2031      H2052   1.046       .  S
C2033      C2036   1.404       .  A
C2033      C2040   1.407       .  A
N2034      H2049   1.045       .  S
N2034      H2050   1.046       .  S
C2036      C2037   1.408       .  A
C2036      H2041   1.084       .  S
C2037      C2038   1.415       .  A
C2037      N2042   1.437       .  S
C2038      C2039   1.409       .  A
C2039      C2040   1.403       .  A
C2039      H2043   1.083       .  S
C2040      N2044   1.438       .  S
N2042      H2045   1.046       .  S
N2042      H2046   1.046       .  S
N2044      H2047   1.046       .  S
N2044      H2048   1.046       .  S
C2053      C2054   1.415       .  A
C2053      C2058   1.405       .  A
C2054      C2055   1.401       .  A
C2054      N2059   1.438       .  S
C2055      C2056   1.399       .  A
C2055      H2060   1.084       .  S
C2056      C2061   1.472       .  S
C2056      C2057   1.408       .  A
C2057      C2058   1.402       .  A
C2057      N2062   1.438       .  S
C2058      H2063   1.083       .  S
N2059      H2079   1.046       .  S
N2059      H2080   1.046       .  S
C2061      C2064   1.398       .  A
C2061      C2068   1.410       .  A
N2062      H2077   1.046       .  S
N2062      H2078   1.046       .  S
C2064      C2065   1.396       .  A
C2064      H2069   1.084       .  S
C2065      C2066   1.409       .  A
C2065      N2070   1.433       .  S
C2066      C2067   1.403       .  A
C2067      C2068   1.405       .  A
C2067      H2071   1.084       .  S
C2068      N2072   1.438       .  S
N2070      H2073   1.046       .  S
N2070      H2074   1.045       .  S
N2072      H2075   1.046       .  S
N2072      H2076   1.046       .  S
C2081      C2082   1.412       .  A
C2081      C2086   1.408       .  A
C2082      C2083   1.412       .  A
C2082      N2087   1.437       .  S
C2083      C2084   1.405       .  A
C2083      H2088   1.084       .  S
C2084      C2089   1.481       .  S
C2084      C2085   1.406       .  A
C2085      C2086   1.402       .  A
C2085      N2090   1.438       .  S
C2086      H2091   1.084       .  S
N2087      H2107   1.046       .  S
N2087      H2108   1.046       .  S
C2089      C2092   1.402       .  A
C2089      C2096   1.409       .  A
N2090      H2105   1.046       .  S
N2090      H2106   1.045       .  S
C2092      C2093   1.406       .  A
C2092      H2097   1.084       .  S
C2093      C2094   1.411       .  A
C2093      N2098   1.438   1_545  S
C2094      C2095   1.404       .  A
C2095      C2096   1.408       .  A
C2095      H2099   1.084       .  S
C2096      N2100   1.437       .  S
N2098      H2101   1.046       .  S
N2098      H2102   1.046       .  S
N2100      H2103   1.046       .  S
N2100      H2104   1.045       .  S
C2109      C2110   1.413       .  A
C2109      C2114   1.404       .  A
C2110      C2111   1.406       .  A
C2110      N2115   1.438       .  S
C2111      C2112   1.401       .  A
C2111      H2116   1.084       .  S
C2112      C2117   1.474       .  S
C2112      C2113   1.408       .  A
C2113      C2114   1.403       .  A
C2113      N2118   1.439       .  S
C2114      H2119   1.084       .  S
N2115      H2135   1.045       .  S
N2115      H2136   1.046       .  S
C2117      C2120   1.399       .  A
C2117      C2124   1.406   1_565  A
N2118      H2133   1.046   1_565  S
N2118      H2134   1.044   1_565  S
C2120      C2121   1.406       .  A
C2120      H2125   1.084       .  S
C2121      C2122   1.419       .  A
C2121      N2126   1.438       .  S
C2122      C2123   1.409   1_565  A
C2123      C2124   1.402       .  A
C2123      H2127   1.083       .  S
C2124      N2128   1.439       .  S
N2126      H2129   1.046       .  S
N2126      H2130   1.046       .  S
N2128      H2131   1.046       .  S
N2128      H2132   1.044       .  S
C2137      C2138   1.414       .  A
C2137      C2142   1.406       .  A
C2138      C2139   1.405       .  A
C2138      N2143   1.438   1_655  S
C2139      C2140   1.401       .  A
C2139      H2144   1.084       .  S
C2140      C2145   1.477       .  S
C2140      C2141   1.407       .  A
C2141      C2142   1.403       .  A
C2141      N2146   1.438       .  S
C2142      H2147   1.084       .  S
N2143      H2163   1.046       .  S
N2143      H2164   1.046       .  S
C2145      C2148   1.404       .  A
C2145      C2152   1.405       .  A
N2146      H2161   1.046       .  S
N2146      H2162   1.046       .  S
C2148      C2149   1.408       .  A
C2148      H2153   1.084       .  S
C2149      C2150   1.412       .  A
C2149      N2154   1.437       .  S
C2150      C2151   1.409       .  A
C2151      C2152   1.399       .  A
C2151      H2155   1.084       .  S
C2152      N2156   1.439       .  S
N2154      H2157   1.046       .  S
N2154      H2158   1.046       .  S
N2156      H2159   1.046       .  S
N2156      H2160   1.046       .  S
C2165      C2166   1.417       .  A
C2165      C2170   1.406       .  A
C2166      C2167   1.407       .  A
C2166      N2171   1.438       .  S
C2167      C2168   1.401       .  A
C2167      H2172   1.084       .  S
C2168      C2173   1.483       .  S
C2168      C2169   1.408       .  A
C2169      C2170   1.404       .  A
C2169      N2174   1.437       .  S
C2170      H2175   1.083       .  S
N2171      H2191   1.046       .  S
N2171      H2192   1.046       .  S
C2173      C2176   1.400       .  A
C2173      C2180   1.408       .  A
N2174      H2189   1.046       .  S
N2174      H2190   1.045       .  S
C2176      C2177   1.403       .  A
C2176      H2181   1.084       .  S
C2177      C2178   1.418       .  A
C2177      N2182   1.438       .  S
C2178      C2179   1.409       .  A
C2179      C2180   1.407       .  A
C2179      H2183   1.084       .  S
C2180      N2184   1.438       .  S
N2182      H2185   1.046       .  S
N2182      H2186   1.045       .  S
N2184      H2187   1.046       .  S
N2184      H2188   1.046       .  S
C2193      C2194   1.416       .  A
C2193      C2198   1.409       .  A
C2194      C2195   1.401       .  A
C2194      N2199   1.432       .  S
C2195      C2196   1.400       .  A
C2195      H2200   1.084       .  S
C2196      C2201   1.485       .  S
C2196      C2197   1.410       .  A
C2197      C2198   1.407       .  A
C2197      N2202   1.438       .  S
C2198      H2203   1.083       .  S
N2199      H2219   1.046       .  S
N2199      H2220   1.046       .  S
C2201      C2204   1.402       .  A
C2201      C2208   1.411       .  A
N2202      H2217   1.046       .  S
N2202      H2218   1.045       .  S
C2204      C2205   1.405       .  A
C2204      H2209   1.084       .  S
C2205      C2206   1.416       .  A
C2205      N2210   1.438       .  S
C2206      C2207   1.404       .  A
C2207      C2208   1.405       .  A
C2207      H2211   1.084       .  S
C2208      N2212   1.438       .  S
N2210      H2213   1.046       .  S
N2210      H2214   1.045       .  S
N2212      H2215   1.046       .  S
N2212      H2216   1.046       .  S
C2221      C2222   1.409       .  A
C2221      C2226   1.404       .  A
C2222      C2223   1.402       .  A
C2222      N2227   1.437       .  S
C2223      C2224   1.400       .  A
C2223      H2228   1.084       .  S
C2224      C2229   1.472       .  S
C2224      C2225   1.408       .  A
C2225      C2226   1.404       .  A
C2225      N2230   1.438       .  S
C2226      H2231   1.084       .  S
N2227      H2247   1.046       .  S
N2227      H2248   1.046       .  S
C2229      C2232   1.401       .  A
C2229      C2236   1.405       .  A
N2230      H2245   1.046       .  S
N2230      H2246   1.045       .  S
C2232      C2233   1.407       .  A
C2232      H2237   1.084       .  S
C2233      C2234   1.414       .  A
C2233      N2238   1.437       .  S
C2234      C2235   1.408       .  A
C2235      C2236   1.400       .  A
C2235      H2239   1.083       .  S
C2236      N2240   1.439       .  S
N2238      H2241   1.046       .  S
N2238      H2242   1.046       .  S
N2240      H2243   1.046       .  S
N2240      H2244   1.045       .  S
C2249      C2250   1.411       .  A
C2249      C2254   1.404       .  A
C2250      C2251   1.405       .  A
C2250      N2255   1.432   1_565  S
C2251      C2252   1.403       .  A
C2251      H2256   1.084       .  S
C2252      C2257   1.492       .  S
C2252      C2253   1.414       .  A
C2253      C2254   1.408       .  A
C2253      N2258   1.437       .  S
C2254      H2259   1.084       .  S
N2255      H2275   1.045       .  S
N2255      H2276   1.045       .  S
C2257      C2260   1.403       .  A
C2257      C2264   1.412       .  A
N2258      H2273   1.046       .  S
N2258      H2274   1.046       .  S
C2260      C2261   1.408       .  A
C2260      H2265   1.084       .  S
C2261      C2262   1.416       .  A
C2261      N2266   1.438       .  S
C2262      C2263   1.408       .  A
C2263      C2264   1.408       .  A
C2263      H2267   1.083       .  S
C2264      N2268   1.438       .  S
N2266      H2269   1.046       .  S
N2266      H2270   1.046       .  S
N2268      H2271   1.046       .  S
N2268      H2272   1.046       .  S
C2277      C2278   1.420       .  A
C2277      C2282   1.409       .  A
C2278      C2279   1.404       .  A
C2278      N2283   1.437       .  S
C2279      C2280   1.398       .  A
C2279      H2284   1.084       .  S
C2280      C2285   1.476       .  S
C2280      C2281   1.406       .  A
C2281      C2282   1.403       .  A
C2281      N2286   1.438       .  S
C2282      H2287   1.083       .  S
N2283      H2303   1.045       .  S
N2283      H2304   1.046       .  S
C2285      C2288   1.400       .  A
C2285      C2292   1.409       .  A
N2286      H2301   1.046       .  S
N2286      H2302   1.046       .  S
C2288      C2289   1.403       .  A
C2288      H2293   1.084       .  S
C2289      C2290   1.416       .  A
C2289      N2294   1.439   1_455  S
C2290      C2291   1.403       .  A
C2291      C2292   1.403       .  A
C2291      H2295   1.084       .  S
C2292      N2296   1.438       .  S
N2294      H2297   1.046       .  S
N2294      H2298   1.046       .  S
N2296      H2299   1.046       .  S
N2296      H2300   1.046       .  S
C2305      C2306   1.412       .  A
C2305      C2310   1.403       .  A
C2306      C2307   1.406       .  A
C2306      N2311   1.437       .  S
C2307      C2308   1.401       .  A
C2307      H2312   1.084       .  S
C2308      C2313   1.475       .  S
C2308      C2309   1.408       .  A
C2309      C2310   1.402       .  A
C2309      N2314   1.439       .  S
C2310      H2315   1.084       .  S
N2311      H2331   1.046       .  S
N2311      H2332   1.046       .  S
C2313      C2316   1.403       .  A
C2313      C2320   1.406       .  A
N2314      H2329   1.046       .  S
N2314      H2330   1.045       .  S
C2316      C2317   1.408       .  A
C2316      H2321   1.084       .  S
C2317      C2318   1.413       .  A
C2317      N2322   1.438       .  S
C2318      C2319   1.403       .  A
C2319      C2320   1.401       .  A
C2319      H2323   1.084       .  S
C2320      N2324   1.438       .  S
N2322      H2325   1.046       .  S
N2322      H2326   1.046       .  S
N2324      H2327   1.045       .  S
N2324      H2328   1.045       .  S
C2333      C2334   1.413       .  A
C2333      C2338   1.406       .  A
C2334      C2335   1.404       .  A
C2334      N2339   1.437       .  S
C2335      C2336   1.399       .  A
C2335      H2340   1.084       .  S
C2336      C2341   1.474       .  S
C2336      C2337   1.407       .  A
C2337      C2338   1.404       .  A
C2337      N2342   1.438       .  S
C2338      H2343   1.084       .  S
N2339      H2359   1.046       .  S
N2339      H2360   1.046       .  S
C2341      C2344   1.401       .  A
C2341      C2348   1.406       .  A
N2342      H2357   1.046       .  S
N2342      H2358   1.045       .  S
C2344      C2345   1.405       .  A
C2344      H2349   1.084       .  S
C2345      C2346   1.412       .  A
C2345      N2350   1.437       .  S
C2346      C2347   1.407       .  A
C2347      C2348   1.404       .  A
C2347      H2351   1.084       .  S
C2348      N2352   1.438       .  S
N2350      H2353   1.046       .  S
N2350      H2354   1.046       .  S
N2352      H2355   1.046       .  S
N2352      H2356   1.045       .  S
C2361      C2362   1.415       .  A
C2361      C2366   1.407       .  A
C2362      C2363   1.402   1_565  A
C2362      N2367   1.437       .  S
C2363      C2364   1.398       .  A
C2363      H2368   1.084       .  S
C2364      C2369   1.478       .  S
C2364      C2365   1.409   1_545  A
C2365      C2366   1.409       .  A
C2365      N2370   1.438       .  S
C2366      H2371   1.084       .  S
N2367      H2387   1.046       .  S
N2367      H2388   1.046       .  S
C2369      C2372   1.405       .  A
C2369      C2376   1.407       .  A
N2370      H2385   1.046       .  S
N2370      H2386   1.044       .  S
C2372      C2373   1.411       .  A
C2372      H2377   1.084       .  S
C2373      C2374   1.411       .  A
C2373      N2378   1.437       .  S
C2374      C2375   1.406       .  A
C2375      C2376   1.399       .  A
C2375      H2379   1.084       .  S
C2376      N2380   1.439       .  S
N2378      H2381   1.046       .  S
N2378      H2382   1.046       .  S
N2380      H2383   1.046       .  S
N2380      H2384   1.044       .  S
C2389      C2390   1.419       .  A
C2389      C2394   1.408       .  A
C2390      C2391   1.405       .  A
C2390      N2395   1.438       .  S
C2391      C2392   1.400       .  A
C2391      H2396   1.084       .  S
C2392      C2397   1.486       .  S
C2392      C2393   1.409       .  A
C2393      C2394   1.408       .  A
C2393      N2398   1.438       .  S
C2394      H2399   1.083       .  S
N2395      H2415   1.046       .  S
N2395      H2416   1.046       .  S
C2397      C2400   1.403       .  A
C2397      C2404   1.412       .  A
N2398      H2413   1.046       .  S
N2398      H2414   1.046       .  S
C2400      C2401   1.406       .  A
C2400      H2405   1.084       .  S
C2401      C2402   1.413       .  A
C2401      N2406   1.437       .  S
C2402      C2403   1.403       .  A
C2403      C2404   1.406       .  A
C2403      H2407   1.084       .  S
C2404      N2408   1.438       .  S
N2406      H2409   1.045       .  S
N2406      H2410   1.046       .  S
N2408      H2411   1.046       .  S
N2408      H2412   1.046       .  S
C2417      C2418   1.415       .  A
C2417      C2422   1.406       .  A
C2418      C2419   1.406       .  A
C2418      N2423   1.438       .  S
C2419      C2420   1.400       .  A
C2419      H2424   1.084       .  S
C2420      C2425   1.475       .  S
C2420      C2421   1.407       .  A
C2421      C2422   1.404       .  A
C2421      N2426   1.438   1_655  S
C2422      H2427   1.084   1_655  S
N2423      H2443   1.046       .  S
N2423      H2444   1.046       .  S
C2425      C2428   1.401       .  A
C2425      C2432   1.410       .  A
N2426      H2441   1.046       .  S
N2426      H2442   1.045       .  S
C2428      C2429   1.405       .  A
C2428      H2433   1.084       .  S
C2429      C2430   1.409       .  A
C2429      N2434   1.438       .  S
C2430      C2431   1.401       .  A
C2431      C2432   1.404       .  A
C2431      H2435   1.084       .  S
C2432      N2436   1.438       .  S
N2434      H2437   1.046       .  S
N2434      H2438   1.046       .  S
N2436      H2439   1.046       .  S
N2436      H2440   1.045   1_655  S
C2445      C2446   1.417       .  A
C2445      C2450   1.407       .  A
C2446      C2447   1.402       .  A
C2446      N2451   1.433       .  S
C2447      C2448   1.401       .  A
C2447      H2452   1.084       .  S
C2448      C2453   1.486       .  S
C2448      C2449   1.411       .  A
C2449      C2450   1.405       .  A
C2449      N2454   1.438       .  S
C2450      H2455   1.083       .  S
N2451      H2471   1.046       .  S
N2451      H2472   1.046       .  S
C2453      C2456   1.402       .  A
C2453      C2460   1.413       .  A
N2454      H2469   1.046       .  S
N2454      H2470   1.045       .  S
C2456      C2457   1.398       .  A
C2456      H2461   1.084       .  S
C2457      C2458   1.411       .  A
C2457      N2462   1.434       .  S
C2458      C2459   1.405       .  A
C2459      C2460   1.408       .  A
C2459      H2463   1.084       .  S
C2460      N2464   1.437       .  S
N2462      H2465   1.046       .  S
N2462      H2466   1.046       .  S
N2464      H2467   1.046       .  S
N2464      H2468   1.045       .  S
C2473      C2474   1.417       .  A
C2473      C2478   1.408       .  A
C2474      C2475   1.404       .  A
C2474      N2479   1.436       .  S
C2475      C2476   1.400       .  A
C2475      H2480   1.084       .  S
C2476      C2481   1.481       .  S
C2476      C2477   1.408       .  A
C2477      C2478   1.404       .  A
C2477      N2482   1.438       .  S
C2478      H2483   1.083       .  S
N2479      H2499   1.045       .  S
N2479      H2500   1.046       .  S
C2481      C2484   1.402       .  A
C2481      C2488   1.411       .  A
N2482      H2497   1.046       .  S
N2482      H2498   1.046       .  S
C2484      C2485   1.402       .  A
C2484      H2489   1.084       .  S
C2485      C2486   1.410       .  A
C2485      N2490   1.432       .  S
C2486      C2487   1.403       .  A
C2487      C2488   1.404       .  A
C2487      H2491   1.084       .  S
C2488      N2492   1.438       .  S
N2490      H2493   1.046       .  S
N2490      H2494   1.046   1_455  S
N2492      H2495   1.046       .  S
N2492      H2496   1.046       .  S
C2501      C2502   1.412       .  A
C2501      C2506   1.405       .  A
C2502      C2503   1.406       .  A
C2502      N2507   1.438       .  S
C2503      C2504   1.403       .  A
C2503      H2508   1.084       .  S
C2504      C2509   1.483       .  S
C2504      C2505   1.409       .  A
C2505      C2506   1.405       .  A
C2505      N2510   1.437       .  S
C2506      H2511   1.084       .  S
N2507      H2527   1.046       .  S
N2507      H2528   1.046       .  S
C2509      C2512   1.399       .  A
C2509      C2516   1.407       .  A
N2510      H2525   1.046       .  S
N2510      H2526   1.046       .  S
C2512      C2513   1.406       .  A
C2512      H2517   1.084       .  S
C2513      C2514   1.423       .  A
C2513      N2518   1.438       .  S
C2514      C2515   1.410       .  A
C2515      C2516   1.406       .  A
C2515      H2519   1.083       .  S
C2516      N2520   1.438       .  S
N2518      H2521   1.046       .  S
N2518      H2522   1.046       .  S
N2520      H2523   1.046       .  S
N2520      H2524   1.046       .  S
C2529      C2530   1.417       .  A
C2529      C2534   1.408       .  A
C2530      C2531   1.404       .  A
C2530      N2535   1.438       .  S
C2531      C2532   1.402       .  A
C2531      H2536   1.084       .  S
C2532      C2537   1.488       .  S
C2532      C2533   1.411       .  A
C2533      C2534   1.407       .  A
C2533      N2538   1.438       .  S
C2534      H2539   1.083       .  S
N2535      H2555   1.046       .  S
N2535      H2556   1.046       .  S
C2537      C2540   1.403       .  A
C2537      C2544   1.410       .  A
N2538      H2553   1.046       .  S
N2538      H2554   1.046       .  S
C2540      C2541   1.407       .  A
C2540      H2545   1.084       .  S
C2541      C2542   1.417       .  A
C2541      N2546   1.438       .  S
C2542      C2543   1.408       .  A
C2543      C2544   1.405       .  A
C2543      H2547   1.083       .  S
C2544      N2548   1.438       .  S
N2546      H2549   1.046       .  S
N2546      H2550   1.046       .  S
N2548      H2551   1.046       .  S
N2548      H2552   1.045       .  S
C2557      C2558   1.416       .  A
C2557      C2562   1.407       .  A
C2558      C2559   1.410       .  A
C2558      N2563   1.438       .  S
C2559      C2560   1.402       .  A
C2559      H2564   1.084       .  S
C2560      C2565   1.484       .  S
C2560      C2561   1.407       .  A
C2561      C2562   1.406       .  A
C2561      N2566   1.438       .  S
C2562      H2567   1.083       .  S
N2563      H2583   1.046       .  S
N2563      H2584   1.046       .  S
C2565      C2568   1.400       .  A
C2565      C2572   1.410       .  A
N2566      H2581   1.046       .  S
N2566      H2582   1.045       .  S
C2568      C2569   1.408       .  A
C2568      H2573   1.084       .  S
C2569      C2570   1.416       .  A
C2569      N2574   1.439       .  S
C2570      C2571   1.404       .  A
C2571      C2572   1.410       .  A
C2571      H2575   1.084       .  S
C2572      N2576   1.438       .  S
N2574      H2577   1.046       .  S
N2574      H2578   1.045       .  S
N2576      H2579   1.045       .  S
N2576      H2580   1.045       .  S
C2585      C2586   1.414       .  A
C2585      C2590   1.404   1_554  A
C2586      C2587   1.405       .  A
C2586      N2591   1.438       .  S
C2587      C2588   1.403       .  A
C2587      H2592   1.084       .  S
C2588      C2593   1.488       .  S
C2588      C2589   1.413   1_554  A
C2589      C2590   1.406       .  A
C2589      N2594   1.438       .  S
C2590      H2595   1.083       .  S
N2591      H2611   1.045       .  S
N2591      H2612   1.046       .  S
C2593      C2596   1.403       .  A
C2593      C2600   1.413       .  A
N2594      H2609   1.046       .  S
N2594      H2610   1.046       .  S
C2596      C2597   1.406       .  A
C2596      H2601   1.084       .  S
C2597      C2598   1.415       .  A
C2597      N2602   1.438       .  S
C2598      C2599   1.405       .  A
C2599      C2600   1.404       .  A
C2599      H2603   1.084       .  S
C2600      N2604   1.438       .  S
N2602      H2605   1.046       .  S
N2602      H2606   1.046       .  S
N2604      H2607   1.046       .  S
N2604      H2608   1.045       .  S
C2613      C2614   1.413       .  A
C2613      C2618   1.404       .  A
C2614      C2615   1.408       .  A
C2614      N2619   1.438       .  S
C2615      C2616   1.402       .  A
C2615      H2620   1.084       .  S
C2616      C2621   1.477       .  S
C2616      C2617   1.407       .  A
C2617      C2618   1.403       .  A
C2617      N2622   1.438       .  S
C2618      H2623   1.084       .  S
N2619      H2639   1.046       .  S
N2619      H2640   1.046       .  S
C2621      C2624   1.401       .  A
C2621      C2628   1.408       .  A
N2622      H2637   1.046       .  S
N2622      H2638   1.045       .  S
C2624      C2625   1.406   1_554  A
C2624      H2629   1.084       .  S
C2625      C2626   1.413   1_556  A
C2625      N2630   1.438       .  S
C2626      C2627   1.404       .  A
C2627      C2628   1.405       .  A
C2627      H2631   1.084       .  S
C2628      N2632   1.438       .  S
N2630      H2633   1.046       .  S
N2630      H2634   1.046       .  S
N2632      H2635   1.046       .  S
N2632      H2636   1.045       .  S
C2641      C2642   1.414       .  A
C2641      C2646   1.403       .  A
C2642      C2643   1.405       .  A
C2642      N2647   1.438       .  S
C2643      C2644   1.401       .  A
C2643      H2648   1.084       .  S
C2644      C2649   1.483       .  S
C2644      C2645   1.411       .  A
C2645      C2646   1.406       .  A
C2645      N2650   1.438       .  S
C2646      H2651   1.084       .  S
N2647      H2667   1.046       .  S
N2647      H2668   1.046       .  S
C2649      C2652   1.400       .  A
C2649      C2656   1.420       .  A
N2650      H2665   1.046       .  S
N2650      H2666   1.046       .  S
C2652      C2653   1.403       .  A
C2652      H2657   1.084       .  S
C2653      C2654   1.416       .  A
C2653      N2658   1.439       .  S
C2654      C2655   1.402       .  A
C2655      C2656   1.404       .  A
C2655      H2659   1.084       .  S
C2656      N2660   1.439       .  S
N2658      H2661   1.046       .  S
N2658      H2662   1.046       .  S
N2660      H2663   1.046       .  S
N2660      H2664   1.042       .  S
C2669      C2670   1.414       .  A
C2669      C2674   1.405       .  A
C2670      C2671   1.407       .  A
C2670      N2675   1.438       .  S
C2671      C2672   1.403       .  A
C2671      H2676   1.084       .  S
C2672      C2677   1.484       .  S
C2672      C2673   1.410       .  A
C2673      C2674   1.404       .  A
C2673      N2678   1.438   1_455  S
C2674      H2679   1.084   1_455  S
N2675      H2695   1.046       .  S
N2675      H2696   1.046       .  S
C2677      C2680   1.400       .  A
C2677      C2684   1.409       .  A
N2678      H2693   1.046       .  S
N2678      H2694   1.046       .  S
C2680      C2681   1.405       .  A
C2680      H2685   1.084       .  S
C2681      C2682   1.418       .  A
C2681      N2686   1.438       .  S
C2682      C2683   1.406       .  A
C2683      C2684   1.406       .  A
C2683      H2687   1.083       .  S
C2684      N2688   1.437       .  S
N2686      H2689   1.046       .  S
N2686      H2690   1.046       .  S
N2688      H2691   1.046       .  S
N2688      H2692   1.045       .  S
C2697      C2698   1.418       .  A
C2697      C2702   1.409       .  A
C2698      C2699   1.409       .  A
C2698      N2703   1.438       .  S
C2699      C2700   1.405       .  A
C2699      H2704   1.083       .  S
C2700      C2705   1.492       .  S
C2700      C2701   1.410       .  A
C2701      C2702   1.402       .  A
C2701      N2706   1.438       .  S
C2702      H2707   1.083       .  S
N2703      H2723   1.046       .  S
N2703      H2724   1.046       .  S
C2705      C2708   1.405       .  A
C2705      C2712   1.413       .  A
N2706      H2721   1.046       .  S
N2706      H2722   1.045       .  S
C2708      C2709   1.403       .  A
C2708      H2713   1.083       .  S
C2709      C2710   1.411       .  A
C2709      N2714   1.438       .  S
C2710      C2711   1.404       .  A
C2711      C2712   1.408       .  A
C2711      H2715   1.084       .  S
C2712      N2716   1.437       .  S
N2714      H2717   1.046       .  S
N2714      H2718   1.045       .  S
N2716      H2719   1.046       .  S
N2716      H2720   1.046       .  S
C2725      C2726   1.417       .  A
C2725      C2730   1.405       .  A
C2726      C2727   1.405       .  A
C2726      N2731   1.438       .  S
C2727      C2728   1.402       .  A
C2727      H2732   1.084       .  S
C2728      C2733   1.485       .  S
C2728      C2729   1.410       .  A
C2729      C2730   1.404       .  A
C2729      N2734   1.438       .  S
C2730      H2735   1.083       .  S
N2731      H2751   1.046       .  S
N2731      H2752   1.046       .  S
C2733      C2736   1.401       .  A
C2733      C2740   1.411       .  A
N2734      H2749   1.046       .  S
N2734      H2750   1.046       .  S
C2736      C2737   1.400       .  A
C2736      H2741   1.084       .  S
C2737      C2738   1.415       .  A
C2737      N2742   1.433       .  S
C2738      C2739   1.408       .  A
C2739      C2740   1.406       .  A
C2739      H2743   1.083       .  S
C2740      N2744   1.438       .  S
N2742      H2745   1.046       .  S
N2742      H2746   1.046       .  S
N2744      H2747   1.046       .  S
N2744      H2748   1.046       .  S
C2753      C2754   1.412       .  A
C2753      C2758   1.403       .  A
C2754      C2755   1.403       .  A
C2754      N2759   1.438       .  S
C2755      C2756   1.402   1_455  A
C2755      H2760   1.084       .  S
C2756      C2761   1.481       .  S
C2756      C2757   1.411       .  A
C2757      C2758   1.403   1_655  A
C2757      N2762   1.438       .  S
C2758      H2763   1.084   1_455  S
N2759      H2779   1.046       .  S
N2759      H2780   1.046       .  S
C2761      C2764   1.401       .  A
C2761      C2768   1.410       .  A
N2762      H2777   1.046       .  S
N2762      H2778   1.046       .  S
C2764      C2765   1.403       .  A
C2764      H2769   1.084       .  S
C2765      C2766   1.417       .  A
C2765      N2770   1.438       .  S
C2766      C2767   1.404       .  A
C2767      C2768   1.403       .  A
C2767      H2771   1.083       .  S
C2768      N2772   1.438       .  S
N2770      H2773   1.046       .  S
N2770      H2774   1.046       .  S
N2772      H2775   1.046       .  S
N2772      H2776   1.046       .  S
C2781      C2782   1.414       .  A
C2781      C2786   1.406       .  A
C2782      C2783   1.405       .  A
C2782      N2787   1.438       .  S
C2783      C2784   1.400       .  A
C2783      H2788   1.084       .  S
C2784      C2789   1.481       .  S
C2784      C2785   1.409       .  A
C2785      C2786   1.409       .  A
C2785      N2790   1.438       .  S
C2786      H2791   1.084       .  S
N2787      H2807   1.046       .  S
N2787      H2808   1.046       .  S
C2789      C2792   1.405       .  A
C2789      C2796   1.408       .  A
N2790      H2805   1.046       .  S
N2790      H2806   1.044       .  S
C2792      C2793   1.411       .  A
C2792      H2797   1.084       .  S
C2793      C2794   1.410       .  A
C2793      N2798   1.437       .  S
C2794      C2795   1.406       .  A
C2795      C2796   1.402       .  A
C2795      H2799   1.084       .  S
C2796      N2800   1.439       .  S
N2798      H2801   1.046       .  S
N2798      H2802   1.046       .  S
N2800      H2803   1.046       .  S
N2800      H2804   1.044       .  S
C2809      C2810   1.413       .  A
C2809      C2814   1.403       .  A
C2810      C2811   1.406       .  A
C2810      N2815   1.438       .  S
C2811      C2812   1.403       .  A
C2811      H2816   1.084       .  S
C2812      C2817   1.487       .  S
C2812      C2813   1.412       .  A
C2813      C2814   1.408       .  A
C2813      N2818   1.438       .  S
C2814      H2819   1.084       .  S
N2815      H2835   1.046       .  S
N2815      H2836   1.046       .  S
C2817      C2820   1.403       .  A
C2817      C2824   1.411       .  A
N2818      H2833   1.046       .  S
N2818      H2834   1.046       .  S
C2820      C2821   1.406       .  A
C2820      H2825   1.084       .  S
C2821      C2822   1.416       .  A
C2821      N2826   1.439       .  S
C2822      C2823   1.406       .  A
C2823      C2824   1.407       .  A
C2823      H2827   1.084       .  S
C2824      N2828   1.438       .  S
N2826      H2829   1.046       .  S
N2826      H2830   1.046       .  S
N2828      H2831   1.045       .  S
N2828      H2832   1.046       .  S
C2837      C2838   1.418       .  A
C2837      C2842   1.405       .  A
C2838      C2839   1.404       .  A
C2838      N2843   1.438       .  S
C2839      C2840   1.400       .  A
C2839      H2844   1.084       .  S
C2840      C2845   1.485       .  S
C2840      C2841   1.411       .  A
C2841      C2842   1.407       .  A
C2841      N2846   1.437       .  S
C2842      H2847   1.083       .  S
N2843      H2863   1.046       .  S
N2843      H2864   1.046       .  S
C2845      C2848   1.400       .  A
C2845      C2852   1.411       .  A
N2846      H2861   1.045       .  S
N2846      H2862   1.046       .  S
C2848      C2849   1.401       .  A
C2848      H2853   1.084       .  S
C2849      C2850   1.414       .  A
C2849      N2854   1.432       .  S
C2850      C2851   1.408       .  A
C2851      C2852   1.407       .  A
C2851      H2855   1.083       .  S
C2852      N2856   1.438       .  S
N2854      H2857   1.046       .  S
N2854      H2858   1.046       .  S
N2856      H2859   1.046       .  S
N2856      H2860   1.045       .  S
C2865      C2866   1.422       .  A
C2865      C2870   1.407       .  A
C2866      C2867   1.403       .  A
C2866      N2871   1.439       .  S
C2867      C2868   1.398       .  A
C2867      H2872   1.084       .  S
C2868      C2873   1.484       .  S
C2868      C2869   1.410       .  A
C2869      C2870   1.409       .  A
C2869      N2874   1.437       .  S
C2870      H2875   1.083       .  S
N2871      H2891   1.045       .  S
N2871      H2892   1.046       .  S
C2873      C2876   1.398       .  A
C2873      C2880   1.410   1_545  A
N2874      H2889   1.046       .  S
N2874      H2890   1.045       .  S
C2876      C2877   1.404   1_545  A
C2876      H2881   1.084       .  S
C2877      C2878   1.420       .  A
C2877      N2882   1.438       .  S
C2878      C2879   1.408       .  A
C2879      C2880   1.409       .  A
C2879      H2883   1.083       .  S
C2880      N2884   1.437       .  S
N2882      H2885   1.046       .  S
N2882      H2886   1.045       .  S
N2884      H2887   1.046       .  S
N2884      H2888   1.046       .  S
C2893      C2894   1.415       .  A
C2893      C2898   1.404       .  A
C2894      C2895   1.406       .  A
C2894      N2899   1.438       .  S
C2895      C2896   1.402       .  A
C2895      H2900   1.084       .  S
C2896      C2901   1.485       .  S
C2896      C2897   1.411       .  A
C2897      C2898   1.404       .  A
C2897      N2902   1.438       .  S
C2898      H2903   1.083       .  S
N2899      H2919   1.046       .  S
N2899      H2920   1.046       .  S
C2901      C2904   1.401       .  A
C2901      C2908   1.411       .  A
N2902      H2917   1.046       .  S
N2902      H2918   1.046       .  S
C2904      C2905   1.405       .  A
C2904      H2909   1.084       .  S
C2905      C2906   1.416       .  A
C2905      N2910   1.438       .  S
C2906      C2907   1.407       .  A
C2907      C2908   1.407       .  A
C2907      H2911   1.083       .  S
C2908      N2912   1.438       .  S
N2910      H2913   1.046       .  S
N2910      H2914   1.046       .  S
N2912      H2915   1.046       .  S
N2912      H2916   1.046       .  S
C2921      C2922   1.415       .  A
C2921      C2926   1.408       .  A
C2922      C2923   1.404       .  A
C2922      N2927   1.438       .  S
C2923      C2924   1.402       .  A
C2923      H2928   1.084       .  S
C2924      C2929   1.482       .  S
C2924      C2925   1.408       .  A
C2925      C2926   1.403       .  A
C2925      N2930   1.438       .  S
C2926      H2931   1.084       .  S
N2927      H2947   1.045       .  S
N2927      H2948   1.046       .  S
C2929      C2932   1.401       .  A
C2929      C2936   1.409       .  A
N2930      H2945   1.046       .  S
N2930      H2946   1.045       .  S
C2932      C2933   1.405       .  A
C2932      H2937   1.084       .  S
C2933      C2934   1.418       .  A
C2933      N2938   1.438       .  S
C2934      C2935   1.406       .  A
C2935      C2936   1.403       .  A
C2935      H2939   1.084       .  S
C2936      N2940   1.438       .  S
N2938      H2941   1.046       .  S
N2938      H2942   1.045       .  S
N2940      H2943   1.046       .  S
N2940      H2944   1.046       .  S
C2949      C2950   1.412       .  A
C2949      C2954   1.405       .  A
C2950      C2951   1.403       .  A
C2950      N2955   1.438   1_545  S
C2951      C2952   1.402       .  A
C2951      H2956   1.084       .  S
C2952      C2957   1.478       .  S
C2952      C2953   1.408       .  A
C2953      C2954   1.403       .  A
C2953      N2958   1.438   1_655  S
C2954      H2959   1.084   1_655  S
N2955      H2975   1.045       .  S
N2955      H2976   1.046       .  S
C2957      C2960   1.402   1_655  A
C2957      C2964   1.408       .  A
N2958      H2973   1.045       .  S
N2958      H2974   1.046       .  S
C2960      C2961   1.403       .  A
C2960      H2965   1.084       .  S
C2961      C2962   1.414   1_455  A
C2961      N2966   1.438       .  S
C2962      C2963   1.405       .  A
C2963      C2964   1.401       .  A
C2963      H2967   1.083       .  S
C2964      N2968   1.438       .  S
N2966      H2969   1.046       .  S
N2966      H2970   1.046       .  S
N2968      H2971   1.046       .  S
N2968      H2972   1.046       .  S
C2977      C2978   1.411       .  A
C2977      C2982   1.408       .  A
C2978      C2979   1.406       .  A
C2978      N2983   1.432       .  S
C2979      C2980   1.404       .  A
C2979      H2984   1.084       .  S
C2980      C2985   1.487       .  S
C2980      C2981   1.410       .  A
C2981      C2982   1.406       .  A
C2981      N2986   1.438       .  S
C2982      H2987   1.084       .  S
N2983      H3003   1.046       .  S
N2983      H3004   1.046       .  S
C2985      C2988   1.401       .  A
C2985      C2992   1.409       .  A
N2986      H3001   1.046       .  S
N2986      H3002   1.046       .  S
C2988      C2989   1.407       .  A
C2988      H2993   1.084       .  S
C2989      C2990   1.419       .  A
C2989      N2994   1.438   1_565  S
C2990      C2991   1.409       .  A
C2991      C2992   1.407       .  A
C2991      H2995   1.083       .  S
C2992      N2996   1.438       .  S
N2994      H2997   1.046       .  S
N2994      H2998   1.045       .  S
N2996      H2999   1.046       .  S
N2996      H3000   1.046       .  S
C3005      C3006   1.419       .  A
C3005      C3010   1.409       .  A
C3006      C3007   1.409       .  A
C3006      N3011   1.438       .  S
C3007      C3008   1.402       .  A
C3007      H3012   1.084       .  S
C3008      C3013   1.487       .  S
C3008      C3009   1.408       .  A
C3009      C3010   1.407       .  A
C3009      N3014   1.438       .  S
C3010      H3015   1.083       .  S
N3011      H3031   1.046       .  S
N3011      H3032   1.046       .  S
C3013      C3016   1.402       .  A
C3013      C3020   1.409       .  A
N3014      H3029   1.046       .  S
N3014      H3030   1.046       .  S
C3016      C3017   1.409       .  A
C3016      H3021   1.084       .  S
C3017      C3018   1.417       .  A
C3017      N3022   1.437       .  S
C3018      C3019   1.407       .  A
C3019      C3020   1.408       .  A
C3019      H3023   1.083       .  S
C3020      N3024   1.438       .  S
N3022      H3025   1.046       .  S
N3022      H3026   1.046       .  S
N3024      H3027   1.046       .  S
N3024      H3028   1.046       .  S
C3033      C3034   1.416       .  A
C3033      C3038   1.405       .  A
C3034      C3035   1.405       .  A
C3034      N3039   1.438       .  S
C3035      C3036   1.399       .  A
C3035      H3040   1.084       .  S
C3036      C3041   1.476       .  S
C3036      C3037   1.408       .  A
C3037      C3038   1.404       .  A
C3037      N3042   1.438       .  S
C3038      H3043   1.084       .  S
N3039      H3059   1.046       .  S
N3039      H3060   1.046       .  S
C3041      C3044   1.401       .  A
C3041      C3048   1.408       .  A
N3042      H3057   1.046       .  S
N3042      H3058   1.044       .  S
C3044      C3045   1.406       .  A
C3044      H3049   1.084       .  S
C3045      C3046   1.414       .  A
C3045      N3050   1.438       .  S
C3046      C3047   1.404       .  A
C3047      C3048   1.405       .  A
C3047      H3051   1.084       .  S
C3048      N3052   1.438       .  S
N3050      H3053   1.046       .  S
N3050      H3054   1.046       .  S
N3052      H3055   1.046       .  S
N3052      H3056   1.045       .  S
