geometry optimzed in LAMMPS
_audit_creation_date              2020-11-30 
_audit_creation_method            'lammps2cif' 
_symmetry_space_group_name_H-M    'P1' 
_symmetry_Int_Tables_number       1 
_symmetry_cell_setting            triclinic 
loop_ 
_symmetry_equiv_pos_as_xyz 
  x,y,z 
_cell_length_a                    44.74808399 
_cell_length_b                    42.31988085113148 
_cell_length_c                    33.99003286634969 
_cell_angle_alpha                 91.84902958442434 
_cell_angle_beta                  89.56246267312106 
_cell_angle_gamma                 122.68865243785186 
loop_ 
_atom_site_label 
_atom_site_type_symbol 
_atom_site_fract_x 
_atom_site_fract_y 
_atom_site_fract_z 
_atom_site_charge 
C1          C  0.33051872  0.17097896  0.44861458     0.31000
C2          C  0.33509818  0.17464772  0.02751701     0.31000
C3          C  0.34819528  0.15151093  0.46603410    -0.05200
C4          C  0.35411962  0.21073286  0.46689398    -0.06000
C5          C  0.29608480  0.15476823  0.47144918    -0.05900
C6          C  0.34790348  0.15137780  0.00606015    -0.05300
C7          C  0.35547506  0.21188963  0.00628876    -0.06000
C8          C  0.29656910  0.15535182  0.01115896    -0.05900
C9          C  0.36457844  0.13304390  0.01577921    -0.31300
N10         N  0.37686321  0.12448341  0.48310474     0.15200
C11         C  0.36585461  0.13502689  0.45196779    -0.31300
H12         H  0.37061531  0.13111653  0.42146076     0.17100
C13         C  0.38096257  0.24854988  0.01663386    -0.30300
N14         N  0.39180614  0.26917453  0.98370028     0.13900
C15         C  0.37641722  0.24648912  0.45381731    -0.30300
C16         C  0.26209216  0.13764541  0.02525617    -0.30600
N17         N  0.24162666  0.12793541  0.49476023     0.14400
H18         H  0.25402957  0.13232805  0.05564930     0.17100
C19         C  0.26084709  0.13765816  0.46139587    -0.30600
H20         H  0.24979916  0.13199002  0.43184882     0.17100
H21         H  0.37985870  0.25465653  0.42352599     0.17100
H22         H  0.37016150  0.12804057  0.04503777     0.17100
H23         H  0.39164098  0.25906174  0.04607454     0.17100
C24         C  0.33559373  0.17010952  0.19833311     0.31000
C25         C  0.33094487  0.16882321  0.27839282     0.31000
C26         C  0.34876809  0.14742493  0.21839298    -0.05200
C27         C  0.35673267  0.20804791  0.22050906    -0.06000
C28         C  0.29802551  0.15138646  0.21518185    -0.05900
C29         C  0.34737582  0.14772336  0.25955775    -0.05300
C30         C  0.35511631  0.20812188  0.26114539    -0.06000
C31         C  0.29581075  0.15187900  0.25572323    -0.05900
C32         C  0.36336943  0.12955754  0.27238589    -0.31300
N33         N  0.37242532  0.11657679  0.24045545     0.15200
C34         C  0.36328996  0.12682823  0.20745109    -0.31300
H35         H  0.36798739  0.12062979  0.17775151     0.17100
C36         C  0.37786674  0.24536005  0.27415596    -0.30300
N37         N  0.39205980  0.26702789  0.24210174     0.13900
C38         C  0.37976563  0.24415339  0.20952344    -0.30300
C39         C  0.26025430  0.13242385  0.26516823    -0.30600
N40         N  0.24111087  0.11946978  0.23118085     0.14400
H41         H  0.24912256  0.12710571  0.29437099     0.17100
C42         C  0.26373883  0.12967077  0.20063028    -0.30600
H43         H  0.25568156  0.12192662  0.17006300     0.17100
H44         H  0.38629684  0.25355984  0.17947435     0.17100
H45         H  0.36869366  0.12655777  0.30257623     0.17100
H46         H  0.38280993  0.25603268  0.30423879     0.17100
O47         O  0.06841596  0.01126785  0.48578612    -0.79200
O48         O  0.48024082  0.06644176  0.44465726    -0.79200
O49         O  0.06481236  0.06985788  0.36594623    -0.79200
O50         O  0.46384888  0.48397137  0.00543692    -0.79200
O51         O  0.04251263  0.09104692  0.40749256    -0.79300
O52         O  0.01937287  0.52984819  0.00354807    -0.79200
O53         O  0.43299232  0.01166316  0.45714075    -0.79200
O54         O  0.07932279  0.04942289  0.43674210    -0.79200
C55         C  0.09033956  0.04035969  0.46736339     1.10500
C56         C  0.44932678  0.04721948  0.45830832     1.10400
C57         C  0.06475472  0.09738820  0.38130842     1.10500
C58         C  0.49196600  0.50960272  0.02403626     1.10400
O59         O  0.49749186  0.45498697  0.48008052    -0.79200
O60         O  0.50050355  0.04163379  0.33584275    -0.79300
O61         O  0.07398949  0.51151306  0.36967832    -0.79200
O62         O  0.42616712  0.46303918  0.39247495    -0.79200
O63         O  0.43912144  0.51912465  0.37806477    -0.79200
O64         O  0.04012548  0.47374086  0.41596348    -0.79200
O65         O  0.45580925  0.43464066  0.43577996    -0.79200
O66         O  0.00925098  0.99595198  0.34176830    -0.79200
Co67       Co  0.02906627  0.50517758  0.45714629     1.51500
Co68       Co  0.49132161  0.05232306  0.39356249     1.51700
Co69       Co  0.03984870  0.01938645  0.39145637     1.51600
Co70       Co  0.44804547  0.47551902  0.44569310     1.51500
O71         O  0.99773987  0.01350063  0.42178538    -1.41100
C72         C  0.47121276  0.42799607  0.46169526     1.10400
C73         C  0.00261896  0.01584332  0.32020295     1.10500
C74         C  0.06380078  0.48226559  0.38878823     1.10500
C75         C  0.41791962  0.48367375  0.37586163     1.10400
O76         O  0.07008347  0.00759370  0.22497741    -0.79200
O77         O  0.47898583  0.06224160  0.20048848    -0.79200
O78         O  0.05743102  0.06740229  0.11070952    -0.79200
O79         O  0.46929033  0.48241117  0.25753919    -0.79200
O80         O  0.03695975  0.08969994  0.15366694    -0.79300
O81         O  0.02725553  0.52317526  0.25543044    -0.79200
O82         O  0.43285746  0.00745441  0.21453870    -0.79200
O83         O  0.07707719  0.04666040  0.17808525    -0.79200
C84         C  0.09030336  0.03633630  0.20519682     1.10500
C85         C  0.44877496  0.04310963  0.21587945     1.10400
C86         C  0.05728433  0.09511024  0.12552940     1.10500
C87         C  0.49873551  0.50822389  0.27397208     1.10400
O88         O  0.50124037  0.45139138  0.22771732    -0.79200
O89         O  0.49162944  0.03888153  0.08742520    -0.79300
O90         O  0.06507380  0.50659504  0.10976126    -0.79200
O91         O  0.42698750  0.46063535  0.14752562    -0.79200
O92         O  0.43355504  0.51472916  0.13812320    -0.79200
O93         O  0.04001318  0.47068444  0.16236304    -0.79200
O94         O  0.46109007  0.43555883  0.18450566    -0.79200
O95         O  0.00078058  0.99341299  0.08959599    -0.79200
Co96       Co  0.02364613  0.49554839  0.20523754     1.51500
Co97       Co  0.48630426  0.04891350  0.14687785     1.51700
Co98       Co  0.03467659  0.01710767  0.13650886     1.51600
Co99       Co  0.45030234  0.47313268  0.19936694     1.51500
O100        O  0.99583404  0.01244520  0.17246032    -1.41100
C101        C  0.47351259  0.42543213  0.21023262     1.10400
C102        C  0.99366883  0.01354811  0.06923746     1.10500
C103        C  0.05879268  0.47904711  0.13022565     1.10500
C104        C  0.41416675  0.47911666  0.13694909     1.10400
C105        C  0.17235927  0.34791254  0.31243642     0.31000
C106        C  0.17762046  0.35282606  0.39243521     0.31000
C107        C  0.15270599  0.36438344  0.33368670    -0.05200
C108        C  0.15928642  0.31101097  0.33303334    -0.06000
C109        C  0.21072181  0.37410593  0.32965219    -0.05900
C110        C  0.15564642  0.36647441  0.37413068    -0.05300
C111        C  0.16285610  0.31351248  0.37347655    -0.06000
C112        C  0.21323948  0.37557255  0.37078911    -0.05900
C113        C  0.14020851  0.38493984  0.38865765    -0.31300
N114        N  0.12663903  0.39358135  0.35838169     0.15200
C115        C  0.13481745  0.38182210  0.32443020    -0.31300
H116        H  0.12856765  0.38595093  0.29515412     0.17100
C117        C  0.15291250  0.27826257  0.38571799    -0.30300
N118        N  0.14221240  0.25447947  0.35368539     0.13900
C119        C  0.14600969  0.27419367  0.32135064    -0.30300
C120        C  0.24883729  0.39495052  0.38060683    -0.30600
N121        N  0.26804455  0.40755747  0.34727853     0.14400
H122        H  0.26015233  0.39880566  0.40971717     0.17100
C123        C  0.24527274  0.39529263  0.31596544    -0.30600
H124        H  0.25340386  0.40012130  0.28550660     0.17100
H125        H  0.13915226  0.26239056  0.29151584     0.17100
H126        H  0.13997276  0.39271880  0.41930146     0.17100
H127        H  0.15225134  0.27015418  0.41563860     0.17100
C128        C  0.17073825  0.35035296  0.06309521     0.31000
C129        C  0.16530122  0.34434890  0.14251384     0.31000
C130        C  0.15006662  0.36575394  0.08362940    -0.05200
C131        C  0.15303411  0.31005601  0.07820937    -0.06000
C132        C  0.20650816  0.37051701  0.08603468    -0.05900
C133        C  0.14759292  0.36311125  0.12426091    -0.05300
C134        C  0.14951076  0.30736019  0.11858865    -0.06000
C135        C  0.20348176  0.36881892  0.12659627    -0.05900
C136        C  0.13164931  0.38179776  0.13715857    -0.31300
N137        N  0.12332939  0.39431306  0.10539367     0.15200
C138        C  0.13474893  0.38507759  0.07251145    -0.31300
H139        H  0.13280110  0.39264530  0.04296093     0.17100
C140        C  0.13412038  0.27022451  0.12738374    -0.30300
N141        N  0.12928465  0.25022966  0.09353718     0.13900
C142        C  0.14083153  0.27407850  0.06314386    -0.30300
C143        C  0.23746900  0.38926964  0.14221948    -0.30600
N144        N  0.26140210  0.40072349  0.11252880     0.14400
H145        H  0.24420791  0.39479533  0.17320159     0.17100
C146        C  0.24252044  0.38889954  0.07800471    -0.30600
H147        H  0.25400917  0.39242434  0.04908213     0.17100
H148        H  0.14035251  0.26581510  0.03257118     0.17100
H149        H  0.12712442  0.38683859  0.16737242     0.17100
H150        H  0.12749823  0.25857669  0.15636520     0.17100
C151        C  0.16733516  0.34106772  0.26810019    -0.04400
C152        C  0.19006440  0.33394170  0.24569348    -0.01500
C153        C  0.18632926  0.33052390  0.20464974     0.03500
C154        C  0.16279935  0.33819898  0.18640654    -0.04400
C155        C  0.13265848  0.32988556  0.20829408    -0.01500
C156        C  0.13458797  0.33028166  0.24961298     0.03500
C157        C  0.21324941  0.32454393  0.26421444     0.38100
C158        C  0.09848905  0.31388858  0.18880688     0.38100
C159        C  0.10187016  0.31300164  0.27176608     0.36500
C160        C  0.20087661  0.31228485  0.18205719     0.36500
N161        N  0.07559537  0.29875694  0.28909922    -0.38300
N162        N  0.21087762  0.29636996  0.16364507    -0.38300
N163        N  0.07105065  0.30031170  0.17343963    -0.37700
N164        N  0.23143405  0.31632974  0.27841112    -0.37700
C165        C  0.17170890  0.35410977  0.01885537    -0.04400
C166        C  0.19592442  0.38687056  0.50106110    -0.01500
C167        C  0.19845819  0.38747384  0.45978645     0.03500
C168        C  0.17520755  0.35433273  0.43704051    -0.04400
C169        C  0.14286681  0.32720540  0.45521791    -0.01500
C170        C  0.14044789  0.32705406  0.49625275     0.03500
C171        C  0.21453779  0.42293248  0.02349925     0.38100
C172        C  0.11063219  0.30235335  0.43226754     0.38100
C173        C  0.10708022  0.30532128  0.01287342     0.36500
C174        C  0.22019369  0.42347702  0.44146408     0.36500
N175        N  0.07908662  0.28744656  0.02625665    -0.38300
N176        N  0.23725331  0.45252692  0.42742822    -0.38300
N177        N  0.08484267  0.28269404  0.41424004    -0.37700
N178        N  0.22688338  0.45108283  0.04130096    -0.37700
C179        C  0.07665947  0.13279101  0.10792227    -0.04400
C180        C  0.11407564  0.15468542  0.10609799    -0.01500
C181        C  0.13183393  0.19348297  0.09854132     0.03500
C182        C  0.11222220  0.21000842  0.09152888    -0.04400
C183        C  0.07501960  0.18716783  0.08873027    -0.01500
C184        C  0.05721731  0.14874328  0.09690330     0.03500
C185        C  0.13419196  0.13772589  0.11336057     0.38100
C186        C  0.05497900  0.20375582  0.07931695     0.38100
C187        C  0.01871202  0.12579162  0.09435139     0.36500
C188        C  0.17022402  0.21685118  0.09931701     0.36500
N189        N  0.98802682  0.10784577  0.09202492    -0.38300
N190        N  0.20093169  0.23542640  0.09977800    -0.38300
N191        N  0.03862287  0.22019262  0.58804812    -0.37700
N192        N  0.15026369  0.12410326  0.11870717    -0.37700
C193        C  0.37509434  0.45891055  0.12934368    -0.04400
C194        C  0.36088864  0.47004940  0.09996106    -0.01500
C195        C  0.32361345  0.45077568  0.09393284     0.03500
C196        C  0.29984847  0.42000402  0.11745914    -0.04400
C197        C  0.31459357  0.40929598  0.14706935    -0.01500
C198        C  0.35155971  0.42906547  0.15354756     0.03500
C199        C  0.38490476  0.99906974  0.07364607     0.38100
C200        C  0.29266170  0.37769398  0.17162667     0.38100
C201        C  0.36493643  0.41986056  0.18735052     0.36500
C202        C  0.31028711  0.46381745  0.06412106     0.36500
N203        N  0.37495571  0.41238577  0.21464651    -0.38300
N204        N  0.30087179  0.47502742  0.03973415    -0.38300
N205        N  0.27800953  0.35357069  0.19334589    -0.37700
N206        N  0.40462373  0.02409767  0.05476734    -0.37700
C207        C  0.10639133  0.41516474  0.10697241    -0.04400
C208        C  0.06966645  0.39655371  0.11388281    -0.01500
C209        C  0.05351427  0.41721929  0.11924101     0.03500
C210        C  0.07425522  0.45683308  0.11816717    -0.04400
C211        C  0.11085415  0.47535209  0.10909424    -0.01500
C212        C  0.12679270  0.45445251  0.10391617     0.03500
C213        C  0.04870367  0.35605096  0.11606735     0.38100
C214        C  0.13289410  0.51605894  0.10805317     0.38100
C215        C  0.16472354  0.47343987  0.09821773     0.36500
C216        C  0.01549618  0.39766146  0.12540514     0.36500
N217        N  0.19509885  0.48869311  0.09417434    -0.38300
N218        N  0.98515965  0.38207159  0.13012297    -0.38300
N219        N  0.15045014  0.04829766  0.10598148    -0.37700
N220        N  0.03180132  0.32367066  0.11781969    -0.37700
C221        C  0.08612299  0.13596343  0.36617725    -0.04400
C222        C  0.06806323  0.15319353  0.35446217    -0.01500
C223        C  0.08693519  0.19208306  0.34877777     0.03500
C224        C  0.12392908  0.21419992  0.35486813    -0.04400
C225        C  0.14243437  0.19674954  0.36333496    -0.01500
C226        C  0.12361564  0.15739670  0.36799951     0.03500
C227        C  0.02983492  0.13088107  0.34818118     0.38100
C228        C  0.18071259  0.21956003  0.36765869     0.38100
C229        C  0.14267814  0.13923318  0.37508252     0.36500
C230        C  0.06805300  0.20971024  0.33830574     0.36500
N231        N  0.15804354  0.12478681  0.38022815    -0.38300
N232        N  0.05271558  0.22346979  0.32983536    -0.38300
N233        N  0.21130680  0.23789728  0.37114571    -0.37700
N234        N  0.49833386  0.11220914  0.34081135    -0.37700
C235        C  0.30629185  0.42751497  0.34611935    -0.04400
C236        C  0.32699554  0.46697798  0.34949941    -0.01500
C237        C  0.36427671  0.48631952  0.35528239     0.03500
C238        C  0.38116512  0.46591863  0.35798346    -0.04400
C239        C  0.36043254  0.42663223  0.34927208    -0.01500
C240        C  0.32313236  0.40749304  0.34543387     0.03500
C241        C  0.30931265  0.48730578  0.34956520     0.38100
C242        C  0.37730869  0.40567481  0.34359309     0.38100
C243        C  0.30162870  0.36682116  0.34403793     0.36500
C244        C  0.38448479  0.52697506  0.35945443     0.36500
N245        N  0.28451834  0.33433702  0.34392202    -0.38300
N246        N  0.40029809  0.55943169  0.36249155    -0.38300
N247        N  0.39078365  0.38901906  0.33853338    -0.37700
N248        N  0.29506178  0.50340339  0.34981958    -0.37700
C249        C  0.07844425  0.45779552  0.37927392    -0.04400
C250        C  0.07076754  0.42738823  0.40328531    -0.01500
C251        C  0.08347905  0.40399504  0.39337352     0.03500
C252        C  0.10838971  0.41337276  0.36293085    -0.04400
C253        C  0.11761260  0.44454920  0.34000702    -0.01500
C254        C  0.10194549  0.46569701  0.34704565     0.03500
C255        C  0.05245008  0.42132970  0.44034144     0.38100
C256        C  0.14492366  0.45649292  0.31048020     0.38100
C257        C  0.11233790  0.99721458  0.32178796     0.36500
C258        C  0.07057121  0.36985735  0.41475833     0.36500
N259        N  0.12007913  0.02204875  0.30174314    -0.38300
N260        N  0.06009476  0.34267953  0.43192499    -0.38300
N261        N  0.16680284  0.46625561  0.28698487    -0.37700
N262        N  0.03869703  0.41612402  0.47053807    -0.37700
C263        C  0.39213912  0.09865398  0.24099416    -0.04400
C264        C  0.42908229  0.12015065  0.23652326    -0.01500
C265        C  0.44806024  0.10253102  0.23007102     0.03500
C266        C  0.43025138  0.06251185  0.23031520    -0.04400
C267        C  0.39343720  0.04155667  0.24003928    -0.01500
C268        C  0.37453166  0.05959712  0.24417281     0.03500
C269        C  0.44750831  0.16076206  0.23896263     0.38100
C270        C  0.37419452  0.00145966  0.24573588     0.38100
C271        C  0.33659196  0.03798337  0.25090861     0.36500
C272        C  0.48570559  0.12634525  0.22190711     0.36500
N273        N  0.30628818  0.02061288  0.25615883    -0.38300
N274        N  0.51558027  0.14561336  0.21483127    -0.38300
N275        N  0.35916339  0.46958218  0.25315967    -0.37700
N276        N  0.46235297  0.19316458  0.24171023    -0.37700
C277        C  0.41110102  0.30744025  0.24032722    -0.04400
C278        C  0.44529819  0.33112108  0.25706086    -0.01500
C279        C  0.46596021  0.36989546  0.24820742     0.03500
C280        C  0.45331807  0.38450636  0.22028410    -0.04400
C281        C  0.41906757  0.35944797  0.20288887    -0.01500
C282        C  0.39732106  0.32287667  0.21607473     0.03500
C283        C  0.45912021  0.31545393  0.28310272     0.38100
C284        C  0.40587816  0.36923067  0.16945208     0.38100
C285        C  0.36000368  0.30102700  0.20503548     0.36500
C286        C  0.50054567  0.39393730  0.26674747     0.36500
N287        N  0.33021731  0.28468086  0.19650360    -0.38300
N288        N  0.52813478  0.41302098  0.28167696    -0.38300
N289        N  0.39500420  0.37594362  0.14233614    -0.37700
N290        N  0.47005513  0.30294114  0.30411073    -0.37700
C291        C  0.20312689  0.09846740  0.22746824    -0.04400
C292        C  0.18507737  0.11730312  0.22806508    -0.01500
C293        C  0.14816454  0.09721129  0.22056983     0.03500
C294        C  0.12906971  0.05792065  0.21347705    -0.04400
C295        C  0.14724075  0.03894049  0.21434906    -0.01500
C296        C  0.18426602  0.05939283  0.22063186     0.03500
C297        C  0.20486987  0.15752751  0.23579620     0.38100
C298        C  0.12812625  0.99842219  0.20850180     0.38100
C299        C  0.20338558  0.04057022  0.21956415     0.36500
C300        C  0.12978725  0.11683819  0.22100426     0.36500
N301        N  0.21880420  0.02571150  0.21849454    -0.38300
N302        N  0.11506719  0.13244303  0.22125145    -0.38300
N303        N  0.11310469  0.96608876  0.20433716    -0.37700
N304        N  0.22070381  0.18964902  0.24211841    -0.37700
C305        C  0.39501206  0.10500651  0.48077860    -0.04400
C306        C  0.43227831  0.12501095  0.48274792    -0.01500
C307        C  0.45000063  0.10577988  0.47942149     0.03500
C308        C  0.43048989  0.06635540  0.47106252    -0.04400
C309        C  0.39262576  0.04637882  0.47046948    -0.01500
C310        C  0.37529741  0.06576617  0.47623258     0.03500
C311        C  0.45243189  0.16564528  0.48655912     0.38100
C312        C  0.37085505  0.00606297  0.46283829     0.38100
C313        C  0.33557712  0.04422822  0.97375115     0.36500
C314        C  0.48828941  0.12692785  0.48495470     0.36500
N315        N  0.30489019  0.02791320  0.97285647    -0.38300
N316        N  0.01844109  0.14892640  0.47550206    -0.38300
N317        N  0.35301698  0.47381126  0.45557286    -0.37700
N318        N  0.46896707  0.19813265  0.48896607    -0.37700
C319        C  0.41773764  0.31052606  0.48336960    -0.04400
C320        C  0.41566148  0.33518011  0.51092974    -0.01500
C321        C  0.43645587  0.37430026  0.50594083     0.03500
C322        C  0.45654886  0.38868172  0.47148939    -0.04400
C323        C  0.45820113  0.36420941  0.44377627    -0.01500
C324        C  0.44138053  0.32588534  0.45147292     0.03500
C325        C  0.39060405  0.32006610  0.04241667     0.38100
C326        C  0.47562369  0.37794229  0.40633618     0.38100
C327        C  0.44871704  0.30242627  0.42659033     0.36500
C328        C  0.43474947  0.39930473  0.53483961     0.36500
N329        N  0.45471108  0.28379000  0.40676448    -0.38300
N330        N  0.43241493  0.41769091  0.05750385    -0.38300
N331        N  0.98747048  0.38834770  0.37433238    -0.37700
N332        N  0.37109880  0.30900536  0.06849406    -0.37700
C333        C  0.12856296  0.06390465  0.48083965    -0.04400
C334        C  0.14649960  0.04676176  0.49407519    -0.01500
C335        C  0.18367056  0.06843551  0.50069137     0.03500
C336        C  0.20329825  0.10734351  0.49521655    -0.04400
C337        C  0.18315696  0.12499173  0.98636235    -0.01500
C338        C  0.14588246  0.10365185  0.98070191     0.03500
C339        C  0.12745760  0.00669237  0.49989416     0.38100
C340        C  0.20333785  0.16531673  0.98224105     0.38100
C341        C  0.12720708  0.12257523  0.97563266     0.36500
C342        C  0.20249085  0.05052882  0.51039720     0.36500
N343        N  0.11223034  0.13765937  0.97205477    -0.38300
N344        N  0.21789166  0.03655831  0.51774648    -0.38300
N345        N  0.21946525  0.19752248  0.97875222    -0.37700
N346        N  0.11305392  0.97489961  0.50538512    -0.37700
C347        C  0.32409047  0.16733632  0.40442091    -0.04400
C348        C  0.31968221  0.19347523  0.38450275    -0.01500
C349        C  0.32038552  0.19329086  0.34319379     0.03500
C350        C  0.32492712  0.16658794  0.32249336    -0.04400
C351        C  0.31374354  0.13297305  0.34211336    -0.01500
C352        C  0.31365650  0.13344989  0.38340079     0.03500
C353        C  0.30971808  0.21676424  0.40565049     0.38100
C354        C  0.29703699  0.09714963  0.32053801     0.39300
C355        C  0.29811741  0.09828634  0.40354226     0.36500
C356        C  0.31147961  0.21669848  0.32250231     0.36500
N357        N  0.28524803  0.07008535  0.41934884    -0.38300
N358        N  0.30398788  0.23508006  0.30611729    -0.38300
N359        N  0.28300101  0.06846080  0.30353827    -0.37700
N360        N  0.30149650  0.23516283  0.42230935    -0.37700
C361        C  0.33850669  0.17584279  0.15395694    -0.04400
C362        C  0.36866561  0.18205049  0.13300714    -0.01500
C363        C  0.36942366  0.18485226  0.09181029     0.03500
C364        C  0.33973712  0.18048067  0.07197471    -0.04400
C365        C  0.31893604  0.19033503  0.09395372    -0.01500
C366        C  0.31760483  0.18724237  0.13494986     0.03500
C367        C  0.40104051  0.19204428  0.15356439     0.38100
C368        C  0.30285637  0.20824152  0.07536178     0.38100
C369        C  0.29704083  0.19903159  0.15682285     0.36500
C370        C  0.40278122  0.19944149  0.07150082     0.36500
N371        N  0.27976113  0.20771313  0.17345819    -0.38300
N372        N  0.42977699  0.21199012  0.05590421    -0.38300
N373        N  0.29029642  0.22280938  0.06076632    -0.37700
N374        N  0.42738475  0.20087727  0.16935152    -0.37700
C375        C  0.32789181  0.16972078  0.94764281     0.31000
C376        C  0.33758187  0.17573112  0.52845544     0.31000
C377        C  0.34539896  0.15002228  0.96507373    -0.05200
C378        C  0.35169909  0.20956341  0.96580204    -0.06000
C379        C  0.29357236  0.15380844  0.97056156    -0.05900
C380        C  0.35057566  0.15272740  0.50701945    -0.05300
C381        C  0.35776814  0.21294101  0.50735332    -0.06000
C382        C  0.29896101  0.15620342  0.51207625    -0.05900
C383        C  0.36702336  0.13424747  0.51676390    -0.31300
N384        N  0.37426793  0.12303716  0.98211242     0.15200
C385        C  0.36309257  0.13350808  0.95102243    -0.31300
H386        H  0.36793597  0.12972225  0.92051544     0.17100
C387        C  0.38279186  0.24962392  0.51806937    -0.30300
N388        N  0.39360129  0.27025474  0.48522372     0.13900
C389        C  0.37410309  0.24527940  0.95246709    -0.30300
C390        C  0.26435380  0.13829644  0.52601006    -0.30600
N391        N  0.23934834  0.12755719  0.99417484     0.14400
H392        H  0.25626890  0.13314722  0.55641306     0.17100
C393        C  0.25833075  0.13692855  0.96066923    -0.30600
H394        H  0.24711704  0.13115658  0.93118796     0.17100
H395        H  0.37715641  0.25323812  0.92219094     0.17100
H396        H  0.37221499  0.12882130  0.54600204     0.17100
H397        H  0.39307746  0.26019617  0.54756718     0.17100
C398        C  0.33823344  0.17448425  0.69855776     0.31000
C399        C  0.32986206  0.16978382  0.77808145     0.31000
C400        C  0.35114557  0.15158209  0.71868456    -0.05200
C401        C  0.35775343  0.21149010  0.72232665    -0.06000
C402        C  0.29984646  0.15472683  0.71319905    -0.05900
C403        C  0.34783596  0.15015487  0.75966175    -0.05300
C404        C  0.35419086  0.20973322  0.76281498    -0.06000
C405        C  0.29576861  0.15327775  0.75355061    -0.05900
C406        C  0.36413646  0.13240781  0.77284916    -0.31300
N407        N  0.37531538  0.12137356  0.74115394     0.15200
C408        C  0.36704872  0.13228622  0.70803772    -0.31300
H409        H  0.37297037  0.12709878  0.67849503     0.17100
C410        C  0.37579978  0.24624705  0.77787462    -0.30300
N411        N  0.39122101  0.26916135  0.74709412     0.13900
C412        C  0.38068730  0.24810978  0.71329511    -0.30300
C413        C  0.25987371  0.13396310  0.76098903    -0.30600
N414        N  0.24225734  0.12326920  0.72598751     0.14400
H415        H  0.24744460  0.12730862  0.78952873     0.17100
C416        C  0.26620246  0.13485240  0.69662097    -0.30600
H417        H  0.25947801  0.12902765  0.66558271     0.17100
H418        H  0.38844320  0.25909425  0.68396549     0.17100
H419        H  0.36806415  0.12821681  0.80312089     0.17100
H420        H  0.37931337  0.25564574  0.80838535     0.17100
O421        O  0.06699372  0.01109661  0.98515901    -0.79200
O422        O  0.48062469  0.06663206  0.94580660    -0.79200
O423        O  0.06396263  0.07046258  0.86542550    -0.79200
O424        O  0.46323858  0.48389412  0.50535332    -0.79200
O425        O  0.04055758  0.09081023  0.90627105    -0.79300
O426        O  0.01979950  0.52956951  0.50364587    -0.79200
O427        O  0.43301040  0.01178096  0.95673991    -0.79200
O428        O  0.07802934  0.05027955  0.93710306    -0.79200
C429        C  0.08881400  0.04068865  0.96750034     1.10500
C430        C  0.44926702  0.04740100  0.95833558     1.10400
C431        C  0.06327900  0.09768282  0.88059936     1.10500
C432        C  0.49154453  0.50946118  0.52379477     1.10400
O433        O  0.49831310  0.45485313  0.98087689    -0.79200
O434        O  0.50113888  0.04239799  0.83715331    -0.79300
O435        O  0.07488307  0.51329450  0.86994345    -0.79200
O436        O  0.42836792  0.46385188  0.89237760    -0.79200
O437        O  0.44039668  0.51986693  0.87971174    -0.79200
O438        O  0.04064036  0.47475307  0.91553197    -0.79200
O439        O  0.45721397  0.43509690  0.93594803    -0.79200
O440        O  0.00956832  0.99599525  0.84108465    -0.79200
Co441      Co  0.02876973  0.50563447  0.95676850     1.51500
Co442      Co  0.49202889  0.05291536  0.89458495     1.51700
Co443      Co  0.03943335  0.02001819  0.89114241     1.51600
Co444      Co  0.44916753  0.47582422  0.94592286     1.51500
O445        O  0.99644746  0.01307006  0.92082613    -1.41100
C446        C  0.47220104  0.42800368  0.96196201     1.10400
C447        C  0.00218269  0.01507793  0.81919922     1.10500
C448        C  0.06501221  0.48406733  0.88895559     1.10500
C449        C  0.41981261  0.48438435  0.87626296     1.10400
O450        O  0.07127029  0.00831791  0.72340373    -0.79200
O451        O  0.47965463  0.06614465  0.69935769    -0.79200
O452        O  0.05702614  0.06728131  0.61019774    -0.79200
O453        O  0.46895944  0.48621983  0.75881787    -0.79200
O454        O  0.03718869  0.08832809  0.65518962    -0.79300
O455        O  0.02548034  0.52808039  0.75186527    -0.79200
O456        O  0.43432672  0.01109414  0.71468560    -0.79200
O457        O  0.07691630  0.04678385  0.67654804    -0.79200
C458        C  0.09088050  0.03708075  0.70328102     1.10500
C459        C  0.45008156  0.04671595  0.71615848     1.10400
C460        C  0.05708782  0.09463306  0.62642923     1.10500
C461        C  0.49905094  0.50864121  0.77632323     1.10400
O462        O  0.49675212  0.44842656  0.73280821    -0.79200
O463        O  0.49192990  0.03992656  0.58726409    -0.79300
O464        O  0.06679434  0.50886200  0.60791838    -0.79200
O465        O  0.42797475  0.46224912  0.64797680    -0.79200
O466        O  0.43319820  0.51540574  0.63762361    -0.79200
O467        O  0.03689926  0.47164228  0.65714685    -0.79200
O468        O  0.45992439  0.43588293  0.68695187    -0.79200
O469        O  0.00041462  0.99287653  0.58934354    -0.79200
Co470      Co  0.03006941  0.50309904  0.70229316     1.51500
Co471      Co  0.48683148  0.05127561  0.64629055     1.51700
Co472      Co  0.03461385  0.01674888  0.63553909     1.51600
Co473      Co  0.45114735  0.47620343  0.69991874     1.51500
O474        O  0.99587644  0.01159931  0.67180034    -1.41100
C475        C  0.47034817  0.42418373  0.71360734     1.10400
C476        C  0.99372351  0.01341478  0.56925067     1.10500
C477        C  0.05837854  0.48026103  0.62754773     1.10500
C478        C  0.41439833  0.47977347  0.63689084     1.10400
C479        C  0.17420023  0.34987458  0.81241177     0.31000
C480        C  0.18035539  0.35426148  0.89220677     0.31000
C481        C  0.15658244  0.36837244  0.83423821    -0.05200
C482        C  0.15941787  0.31247632  0.83272643    -0.06000
C483        C  0.21293421  0.37431021  0.82907290    -0.05900
C484        C  0.15998242  0.37018675  0.87460569    -0.05300
C485        C  0.16360322  0.31475165  0.87299458    -0.06000
C486        C  0.21592351  0.37543707  0.87013988    -0.05900
C487        C  0.14596577  0.38989770  0.88984063    -0.31300
N488        N  0.13263650  0.39945167  0.86011227     0.15200
C489        C  0.13981455  0.38721633  0.82575967    -0.31300
H490        H  0.13329279  0.39161061  0.79673512     0.17100
C491        C  0.15257036  0.27912053  0.88498734    -0.30300
N492        N  0.14033941  0.25521529  0.85303277     0.13900
C493        C  0.14445208  0.27530657  0.82088080    -0.30300
C494        C  0.25163401  0.39421044  0.87931119    -0.30600
N495        N  0.27044405  0.40673636  0.84568284     0.14400
H496        H  0.26330106  0.39815729  0.90822216     0.17100
C497        C  0.24730574  0.39507539  0.81480287    -0.30600
H498        H  0.25501568  0.40038394  0.78424125     0.17100
H499        H  0.13717344  0.26366734  0.79102106     0.17100
H500        H  0.14616298  0.39745391  0.92064558     0.17100
H501        H  0.15247781  0.27093823  0.91476926     0.17100
C502        C  0.16997507  0.34970333  0.56341954     0.31000
C503        C  0.16506418  0.34448925  0.64284095     0.31000
C504        C  0.14912916  0.36500452  0.58389876    -0.05200
C505        C  0.15268111  0.30964036  0.57885764    -0.06000
C506        C  0.20590900  0.37006824  0.58609954    -0.05900
C507        C  0.14699289  0.36282245  0.62452828    -0.05300
C508        C  0.14938039  0.30731293  0.61926042    -0.06000
C509        C  0.20315039  0.36905492  0.62663659    -0.05900
C510        C  0.13089543  0.38141948  0.63730374    -0.31300
N511        N  0.12171323  0.39302958  0.60548151     0.15200
C512        C  0.13314115  0.38366635  0.57264790    -0.31300
H513        H  0.13086092  0.39081994  0.54302090     0.17100
C514        C  0.13421391  0.27031418  0.62838870    -0.30300
N515        N  0.12936058  0.25009907  0.59470545     0.13900
C516        C  0.14068629  0.27364709  0.56409407    -0.30300
C517        C  0.23725655  0.38946879  0.64191912    -0.30600
N518        N  0.26110109  0.39969130  0.61218515     0.14400
H519        H  0.24396478  0.39587872  0.67287861     0.17100
C520        C  0.24177962  0.38711464  0.57787048    -0.30600
H521        H  0.25262889  0.38886541  0.54893978     0.17100
H522        H  0.13991108  0.26510671  0.53354010     0.17100
H523        H  0.12697019  0.38717563  0.66750225     0.17100
H524        H  0.12753009  0.25885922  0.65743447     0.17100
C525        C  0.16866978  0.34302729  0.76823546    -0.04400
C526        C  0.19026981  0.33429818  0.74572383    -0.01500
C527        C  0.18620440  0.33055327  0.70475199     0.03500
C528        C  0.16279589  0.33851904  0.68668517    -0.04400
C529        C  0.13332480  0.33165974  0.70906586    -0.01500
C530        C  0.13600515  0.33319014  0.75032619     0.03500
C531        C  0.21259856  0.32372544  0.76419118     0.38100
C532        C  0.09886539  0.31611393  0.69043779     0.38100
C533        C  0.10384624  0.31823727  0.77325030     0.36500
C534        C  0.20133889  0.31290530  0.68204816     0.36500
N535        N  0.07800722  0.30586545  0.79121950    -0.38300
N536        N  0.21227410  0.29778092  0.66382861    -0.38300
N537        N  0.07112979  0.30313594  0.67598792    -0.37700
N538        N  0.23003063  0.31453059  0.77836761    -0.37700
C539        C  0.17046644  0.35322293  0.51919862    -0.04400
C540        C  0.19763985  0.38763181  0.00099476    -0.01500
C541        C  0.20142884  0.38803428  0.95985683     0.03500
C542        C  0.17784840  0.35525904  0.93681136    -0.04400
C543        C  0.14485130  0.32883505  0.95449639    -0.01500
C544        C  0.14192668  0.32834163  0.99547626     0.03500
C545        C  0.21470751  0.42203802  0.52388446     0.38100
C546        C  0.11250998  0.30553560  0.93111501     0.38100
C547        C  0.10589533  0.30355299  0.51420361     0.36500
C548        C  0.22484168  0.42375683  0.94168002     0.36500
N549        N  0.07821396  0.28520093  0.52819066    -0.38300
N550        N  0.24318865  0.45255491  0.92757969    -0.38300
N551        N  0.08673357  0.28722328  0.91261305    -0.37700
N552        N  0.22907318  0.45013867  0.54198849    -0.37700
C553        C  0.07581580  0.13272788  0.60983943    -0.04400
C554        C  0.11290272  0.15375143  0.60406460    -0.01500
C555        C  0.13066423  0.19242399  0.59592496     0.03500
C556        C  0.11136610  0.20981988  0.59296857    -0.04400
C557        C  0.07416925  0.18809426  0.59521367    -0.01500
C558        C  0.05635829  0.14976118  0.60359851     0.03500
C559        C  0.13299751  0.13640875  0.60911755     0.38100
C560        C  0.05447693  0.20601773  0.59113311     0.38100
C561        C  0.01792968  0.12823395  0.60697719     0.36500
C562        C  0.16893917  0.21496398  0.59265323     0.36500
N563        N  0.98734145  0.11132757  0.60989168    -0.38300
N564        N  0.19953844  0.23295536  0.58998312    -0.38300
N565        N  0.03850755  0.21646852  0.07177449    -0.37700
N566        N  0.14910173  0.12262724  0.61318135    -0.37700
C567        C  0.37521193  0.45853605  0.62908433    -0.04400
C568        C  0.36101794  0.46559783  0.59620209    -0.01500
C569        C  0.32369157  0.44636702  0.59023940     0.03500
C570        C  0.29971757  0.41881011  0.61693811    -0.04400
C571        C  0.31463484  0.41107873  0.64924334    -0.01500
C572        C  0.35170684  0.43138836  0.65573463     0.03500
C573        C  0.38545495  0.99367830  0.56928581     0.38100
C574        C  0.29281267  0.38181213  0.67640108     0.38100
C575        C  0.36539262  0.42508714  0.69132526     0.36500
C576        C  0.31071095  0.45607733  0.55686005     0.36500
N577        N  0.37565740  0.41977830  0.71995408    -0.38300
N578        N  0.30135211  0.46427045  0.52959397    -0.38300
N579        N  0.27776389  0.35957856  0.69996519    -0.37700
N580        N  0.40570738  0.01570366  0.54796423    -0.37700
C581        C  0.10502655  0.41421748  0.60708492    -0.04400
C582        C  0.06849228  0.39625980  0.61495425    -0.01500
C583        C  0.05268836  0.41744516  0.61959361     0.03500
C584        C  0.07356707  0.45705818  0.61714778    -0.04400
C585        C  0.11010405  0.47477412  0.60772397    -0.01500
C586        C  0.12558788  0.45333392  0.60289322     0.03500
C587        C  0.04722097  0.35585059  0.61838186     0.38100
C588        C  0.13257992  0.51529927  0.60518471     0.38100
C589        C  0.16327730  0.47158199  0.59579977     0.36500
C590        C  0.01471534  0.39822085  0.62562413     0.36500
N591        N  0.19341682  0.48600559  0.59048894    -0.38300
N592        N  0.98434825  0.38272558  0.62998828    -0.38300
N593        N  0.15088745  0.04760009  0.60457396    -0.37700
N594        N  0.02994331  0.32356765  0.62111318    -0.37700
C595        C  0.08472763  0.13656058  0.86606692    -0.04400
C596        C  0.06666059  0.15342133  0.85306561    -0.01500
C597        C  0.08540116  0.19230286  0.84691028     0.03500
C598        C  0.12224778  0.21488137  0.85419468    -0.04400
C599        C  0.14070190  0.19789679  0.86487838    -0.01500
C600        C  0.12210536  0.15861619  0.86996111     0.03500
C601        C  0.02845569  0.13080475  0.84659183     0.38100
C602        C  0.17875227  0.22119950  0.87127667     0.38100
C603        C  0.14130731  0.14126498  0.88009448     0.36500
C604        C  0.06642382  0.20948882  0.83516181     0.36500
N605        N  0.15693604  0.12761445  0.88775420    -0.38300
N606        N  0.05104027  0.22293989  0.82573071    -0.38300
N607        N  0.20913923  0.23998179  0.87650394    -0.37700
N608        N  0.49898371  0.11358520  0.84366381    -0.37700
C609        C  0.30869967  0.42724570  0.84403838    -0.04400
C610        C  0.32893134  0.46666654  0.84843693    -0.01500
C611        C  0.36610869  0.48634606  0.85496212     0.03500
C612        C  0.38333983  0.46633370  0.85771541    -0.04400
C613        C  0.36322675  0.42716492  0.84806503    -0.01500
C614        C  0.32605266  0.40774882  0.84252266     0.03500
C615        C  0.31093849  0.48666281  0.84833312     0.38100
C616        C  0.38044318  0.40638874  0.84402019     0.38100
C617        C  0.30517546  0.36718379  0.83791359     0.36500
C618        C  0.38585154  0.52693946  0.86000040     0.36500
N619        N  0.28881803  0.33473585  0.83483822    -0.38300
N620        N  0.40141914  0.55934299  0.86374521    -0.38300
N621        N  0.39408445  0.38974388  0.84066188    -0.37700
N622        N  0.29664881  0.50271435  0.84834549    -0.37700
C623        C  0.08104947  0.46073104  0.88008591    -0.04400
C624        C  0.07437801  0.43093636  0.90449795    -0.01500
C625        C  0.08901507  0.40908693  0.89570354     0.03500
C626        C  0.11417902  0.41904432  0.86535417    -0.04400
C627        C  0.12249782  0.44981915  0.84220523    -0.01500
C628        C  0.10514017  0.46941061  0.84827684     0.03500
C629        C  0.05445689  0.42358331  0.94054628     0.38100
C630        C  0.15062926  0.46302026  0.81351907     0.38100
C631        C  0.11329687  0.99939513  0.82181377     0.36500
C632        C  0.07768463  0.37589865  0.91817865     0.36500
N633        N  0.12006788  0.02340284  0.80092948    -0.38300
N634        N  0.06848453  0.34959634  0.93644059    -0.38300
N635        N  0.17324731  0.47388298  0.79081224    -0.37700
N636        N  0.03935587  0.41733369  0.96994974    -0.37700
C637        C  0.39457547  0.10294681  0.74210653    -0.04400
C638        C  0.43176309  0.12403069  0.73976706    -0.01500
C639        C  0.45045989  0.10588819  0.73487831     0.03500
C640        C  0.43188122  0.06588098  0.73239416    -0.04400
C641        C  0.39475008  0.04520411  0.74039356    -0.01500
C642        C  0.37628292  0.06373547  0.74404644     0.03500
C643        C  0.45068109  0.16465678  0.74228082     0.38100
C644        C  0.37481615  0.00507640  0.74570284     0.38100
C645        C  0.33804793  0.04244123  0.74856609     0.36500
C646        C  0.48887976  0.12897508  0.73240725     0.36500
N647        N  0.30750914  0.02529465  0.75193948    -0.38300
N648        N  0.51950784  0.14752724  0.73028623    -0.38300
N649        N  0.35721960  0.47352845  0.75141641    -0.37700
N650        N  0.46590494  0.19709721  0.74473108    -0.37700
C651        C  0.40972001  0.30924455  0.74736722    -0.04400
C652        C  0.44580830  0.33165378  0.75829472    -0.01500
C653        C  0.46615191  0.36971223  0.74795082     0.03500
C654        C  0.45076027  0.38409829  0.72353251    -0.04400
C655        C  0.41492608  0.36029481  0.71122511    -0.01500
C656        C  0.39392131  0.32497347  0.72713434     0.03500
C657        C  0.46201342  0.31509924  0.77891568     0.38100
C658        C  0.39999581  0.36957698  0.67921731     0.38100
C659        C  0.35574657  0.30413376  0.72191514     0.36500
C660        C  0.50324296  0.39277330  0.76017377     0.36500
N661        N  0.32525383  0.28858917  0.71843251    -0.38300
N662        N  0.53278272  0.41118864  0.76991021    -0.38300
N663        N  0.38821662  0.37585186  0.65262686    -0.37700
N664        N  0.47510867  0.30199444  0.79535525    -0.37700
C665        C  0.20439377  0.10185475  0.72075599    -0.04400
C666        C  0.18590248  0.12017035  0.71987558    -0.01500
C667        C  0.14873809  0.09918164  0.71409615     0.03500
C668        C  0.12985380  0.05954977  0.71030825    -0.04400
C669        C  0.14864202  0.04128297  0.71173246    -0.01500
C670        C  0.18588577  0.06257890  0.71605801     0.03500
C671        C  0.20539992  0.16070598  0.72465036     0.38100
C672        C  0.12992251  0.00062697  0.70819902     0.38100
C673        C  0.20558147  0.04439763  0.71488784     0.36500
C674        C  0.12994989  0.11834728  0.71297233     0.36500
N675        N  0.22143664  0.03002456  0.71352384    -0.38300
N676        N  0.11493286  0.13359703  0.71189965    -0.38300
N677        N  0.11508623  0.96820397  0.70581526    -0.37700
N678        N  0.22088076  0.19308205  0.72855211    -0.37700
C679        C  0.39306717  0.10411661  0.97967848    -0.04400
C680        C  0.43036482  0.12470590  0.98125455    -0.01500
C681        C  0.44883677  0.10626620  0.97667548     0.03500
C682        C  0.42992812  0.06652462  0.97003803    -0.04400
C683        C  0.39199632  0.04596921  0.97029014    -0.01500
C684        C  0.37403233  0.06489511  0.97487712     0.03500
C685        C  0.44979420  0.16525445  0.98611393     0.38100
C686        C  0.37070274  0.00537499  0.96497130     0.38100
C687        C  0.33686231  0.04557493  0.47692101     0.36500
C688        C  0.48738211  0.12887406  0.97828206     0.36500
N689        N  0.30620360  0.02956120  0.47783498    -0.38300
N690        N  0.01832830  0.14422544  0.98822976    -0.38300
N691        N  0.35464154  0.47221558  0.96750652    -0.37700
N692        N  0.46575946  0.19767448  0.98963208    -0.37700
C693        C  0.41637691  0.30953846  0.98175035    -0.04400
C694        C  0.41525923  0.33438802  0.00995913    -0.01500
C695        C  0.43648922  0.37360276  0.00534157     0.03500
C696        C  0.45697230  0.38827541  0.97118804    -0.04400
C697        C  0.45784668  0.36369070  0.94286894    -0.01500
C698        C  0.43977232  0.32495476  0.94955953     0.03500
C699        C  0.39039757  0.32072559  0.54282409     0.38100
C700        C  0.47572432  0.37781561  0.90571053     0.38100
C701        C  0.44568095  0.30122171  0.92325363     0.36500
C702        C  0.43458026  0.39850645  0.03418480     0.36500
N703        N  0.45057614  0.28250510  0.90211553    -0.38300
N704        N  0.43288458  0.41853112  0.55837734    -0.38300
N705        N  0.98903254  0.38843231  0.87619900    -0.37700
N706        N  0.37033756  0.30968541  0.56838616    -0.37700
C707        C  0.12664205  0.06398955  0.98157321    -0.04400
C708        C  0.14459181  0.04660772  0.99391610    -0.01500
C709        C  0.18167498  0.06821429  0.00040689     0.03500
C710        C  0.20114862  0.10710096  0.99511356    -0.04400
C711        C  0.18536858  0.12499658  0.48513187    -0.01500
C712        C  0.14814421  0.10355244  0.47860158     0.03500
C713        C  0.12572650  0.00646987  0.99919318     0.38100
C714        C  0.20561963  0.16529700  0.48067368     0.38100
C715        C  0.12991418  0.12253402  0.47104271     0.36500
C716        C  0.20051749  0.05031135  0.01003285     0.36500
N717        N  0.11539356  0.13779685  0.46540468    -0.38300
N718        N  0.21585410  0.03629397  0.01746907    -0.38300
N719        N  0.22180725  0.19748433  0.47702292    -0.37700
N720        N  0.11173173  0.97468033  0.00444195    -0.37700
C721        C  0.32123704  0.16611748  0.90348752    -0.04400
C722        C  0.31600724  0.19189803  0.88398532    -0.01500
C723        C  0.31653665  0.19194848  0.84268787     0.03500
C724        C  0.32225407  0.16621495  0.82178487    -0.04400
C725        C  0.31163841  0.13255386  0.84079798    -0.01500
C726        C  0.31134652  0.13254383  0.88207535     0.03500
C727        C  0.30567311  0.21465367  0.90557315     0.38100
C728        C  0.29562196  0.09717345  0.81850933     0.39300
C729        C  0.29591881  0.09717084  0.90171131     0.36500
C730        C  0.30642086  0.21444170  0.82216287     0.36500
N731        N  0.28306609  0.06874213  0.91705277    -0.38300
N732        N  0.29782213  0.23192711  0.80585436    -0.38300
N733        N  0.28207698  0.06886272  0.80083041    -0.37700
N734        N  0.29701174  0.23249301  0.92260966    -0.37700
C735        C  0.34271384  0.18137734  0.65459386    -0.04400
C736        C  0.37250891  0.18636865  0.63408417    -0.01500
C737        C  0.37259940  0.18708409  0.59270493     0.03500
C738        C  0.34264567  0.18227198  0.57274058    -0.04400
C739        C  0.32286350  0.19400800  0.59393236    -0.01500
C740        C  0.32257046  0.19324229  0.63504690     0.03500
C741        C  0.40512712  0.19767327  0.65497976     0.38100
C742        C  0.30671485  0.21125719  0.57413498     0.38100
C743        C  0.30398598  0.20768733  0.65646709     0.36500
C744        C  0.40559593  0.20002110  0.57217959     0.36500
N745        N  0.28853274  0.21886566  0.67270899    -0.38300
N746        N  0.43237715  0.21112350  0.55652472    -0.38300
N747        N  0.29430899  0.22542182  0.55835070    -0.37700
N748        N  0.43153521  0.20740266  0.67118223    -0.37700
C749        C  0.32999277  0.67056731  0.44828078     0.31000
C750        C  0.33548531  0.67414539  0.02716730     0.31000
C751        C  0.34766938  0.65112411  0.46575924    -0.05200
C752        C  0.35357513  0.71036570  0.46654340    -0.06000
C753        C  0.29555760  0.65435807  0.47111910    -0.05900
C754        C  0.34776173  0.65041719  0.00573591    -0.05300
C755        C  0.35594510  0.71118548  0.00555389    -0.06000
C756        C  0.29683525  0.65497208  0.01116759    -0.05900
C757        C  0.36427021  0.63194861  0.01545850    -0.31300
N758        N  0.37637669  0.62415419  0.48286844     0.15200
C759        C  0.36532436  0.63463240  0.45171923    -0.31300
H760        H  0.37007556  0.63069241  0.42121754     0.17100
C761        C  0.38146569  0.74794600  0.01550820    -0.30300
N762        N  0.39185051  0.76837602  0.98241550     0.13900
C763        C  0.37588344  0.74616254  0.45350779    -0.30300
C764        C  0.26246174  0.63735009  0.02560211    -0.30600
N765        N  0.24112264  0.62753321  0.49447210     0.14400
H766        H  0.25464835  0.63224315  0.05608345     0.17100
C767        C  0.26031545  0.63721939  0.46108373    -0.30600
H768        H  0.24925007  0.63150504  0.43155370     0.17100
H769        H  0.37931220  0.75434641  0.42322719     0.17100
H770        H  0.37002104  0.62709523  0.04470587     0.17100
H771        H  0.39236260  0.75868763  0.04483428     0.17100
C772        C  0.33659383  0.67037267  0.19804943     0.31000
C773        C  0.33129355  0.66862988  0.27807984     0.31000
C774        C  0.34941579  0.64739766  0.21819021    -0.05200
C775        C  0.35775421  0.70820209  0.22049510    -0.06000
C776        C  0.29889294  0.65166416  0.21456409    -0.05900
C777        C  0.34766625  0.64745410  0.25935051    -0.05300
C778        C  0.35578894  0.70801723  0.26111747    -0.06000
C779        C  0.29636730  0.65192766  0.25507880    -0.05900
C780        C  0.36328424  0.62897074  0.27231658    -0.31300
N781        N  0.37243489  0.61600663  0.24047164     0.15200
C782        C  0.36376028  0.62660360  0.20738381    -0.31300
H783        H  0.36867087  0.62050507  0.17773772     0.17100
C784        C  0.37855640  0.74515948  0.27445446    -0.30300
N785        N  0.39314902  0.76705844  0.24262207     0.13900
C786        C  0.38102445  0.74440266  0.20984946    -0.30300
C787        C  0.26074418  0.63210392  0.26420704    -0.30600
N788        N  0.24184326  0.61911199  0.23007906     0.14400
H789        H  0.24939905  0.62661103  0.29332205     0.17100
C790        C  0.26470740  0.62972899  0.19970691    -0.30600
H791        H  0.25688906  0.62217573  0.16907241     0.17100
H792        H  0.38774124  0.75404026  0.17989359     0.17100
H793        H  0.36836211  0.62580498  0.30254490     0.17100
H794        H  0.38318584  0.75563019  0.30460329     0.17100
O795        O  0.06797933  0.51069311  0.48530691    -0.79200
O796        O  0.47992628  0.56640785  0.44416468    -0.79200
O797        O  0.06449368  0.56965775  0.36594710    -0.79200
O798        O  0.46340344  0.98375127  0.00510790    -0.79200
O799        O  0.04192064  0.59067797  0.40729749    -0.79300
O800        O  0.01922440  0.03006936  0.00321945    -0.79200
O801        O  0.43277863  0.51158975  0.45683576    -0.79200
O802        O  0.07886300  0.54932149  0.43682857    -0.79200
C803        C  0.08990398  0.53996674  0.46712233     1.10500
C804        C  0.44903798  0.54713927  0.45787059     1.10400
C805        C  0.06427114  0.59713983  0.38119857     1.10500
C806        C  0.49163391  0.00920001  0.02373278     1.10400
O807        O  0.49753298  0.95477671  0.48025610    -0.79200
O808        O  0.50033362  0.54148669  0.33554058    -0.79300
O809        O  0.07417937  0.01165826  0.36945294    -0.79200
O810        O  0.42635967  0.96317119  0.39268219    -0.79200
O811        O  0.43941639  0.01935220  0.37844614    -0.79200
O812        O  0.04094309  0.97431976  0.41638160    -0.79200
O813        O  0.45583585  0.93455137  0.43599420    -0.79200
O814        O  0.00906016  0.49538778  0.34264139    -0.79200
Co815      Co  0.02958912  0.00565918  0.45744039     1.51500
Co816      Co  0.49106434  0.55224155  0.39315612     1.51700
Co817      Co  0.03960618  0.51923787  0.39172174     1.51600
Co818      Co  0.44819791  0.97553457  0.44593609     1.51500
O819        O  0.99725304  0.51324315  0.42169387    -1.41100
C820        C  0.47122315  0.92782310  0.46185827     1.10400
C821        C  0.00242142  0.51500563  0.32085584     1.10500
C822        C  0.06443361  0.98274131  0.38898393     1.10500
C823        C  0.41827216  0.98391147  0.37599157     1.10400
O824        O  0.07110491  0.51321889  0.22024997    -0.79200
O825        O  0.47940763  0.56217659  0.20115026    -0.79200
O826        O  0.05740438  0.56779359  0.10937441    -0.79200
O827        O  0.46921133  0.98270811  0.25765094    -0.79200
O828        O  0.03733164  0.59066323  0.15264748    -0.79300
O829        O  0.02532835  0.02840369  0.25260081    -0.79200
O830        O  0.43310251  0.50740550  0.21487147    -0.79200
O831        O  0.07874576  0.55034619  0.17384580    -0.79200
C832        C  0.09183770  0.54028467  0.20049319     1.10500
C833        C  0.44914951  0.54305637  0.21643937     1.10400
C834        C  0.05748168  0.59562455  0.12439652     1.10500
C835        C  0.49871950  0.00842642  0.27407413     1.10400
O836        O  0.50136096  0.95162072  0.22793510    -0.79200
O837        O  0.49185699  0.53911963  0.08782932    -0.79300
O838        O  0.06676010  0.00864941  0.10934791    -0.79200
O839        O  0.42713058  0.96039449  0.14747108    -0.79200
O840        O  0.43327010  0.01422175  0.13758036    -0.79200
O841        O  0.03624454  0.97123607  0.15815706    -0.79200
O842        O  0.46094269  0.93541781  0.18496079    -0.79200
O843        O  0.00007826  0.49326002  0.09040091    -0.79200
Co844      Co  0.02954141  0.00301017  0.20314016     1.51500
Co845      Co  0.48661029  0.54907426  0.14737307     1.51700
Co846      Co  0.03520680  0.51821035  0.13611140     1.51600
Co847      Co  0.45024327  0.97318673  0.19941129     1.51500
O848        O  0.99866178  0.51579820  0.17316521    -1.41100
C849        C  0.47355630  0.92550668  0.21070507     1.10400
C850        C  0.99347554  0.51352308  0.06950597     1.10500
C851        C  0.05814706  0.97998536  0.12892516     1.10500
C852        C  0.41414867  0.97859352  0.13651366     1.10400
C853        C  0.17289627  0.84808280  0.31284444     0.31000
C854        C  0.17825772  0.85297490  0.39285073     0.31000
C855        C  0.15365656  0.86501393  0.33413753    -0.05200
C856        C  0.15946127  0.81109045  0.33344278    -0.06000
C857        C  0.21129831  0.87391234  0.33000354    -0.05900
C858        C  0.15661990  0.86705922  0.37458201    -0.05300
C859        C  0.16310746  0.81358400  0.37387889    -0.06000
C860        C  0.21389478  0.87539147  0.37114027    -0.05900
C861        C  0.14158787  0.88593230  0.38914312    -0.31300
N862        N  0.12820434  0.89484269  0.35890783     0.15200
C863        C  0.13617357  0.88291010  0.32492393    -0.31300
H864        H  0.12997846  0.88713857  0.29566920     0.17100
C865        C  0.15298733  0.77826857  0.38611342    -0.30300
N866        N  0.14207158  0.75445065  0.35409672     0.13900
C867        C  0.14590536  0.77419894  0.32177484    -0.30300
C868        C  0.24952750  0.89481575  0.38083679    -0.30600
N869        N  0.26863054  0.90736258  0.34742257     0.14400
H870        H  0.26093932  0.89884390  0.40992536     0.17100
C871        C  0.24578510  0.89505832  0.31619343    -0.30600
H872        H  0.25382338  0.89995421  0.28571096     0.17100
H873        H  0.13894388  0.76238608  0.29194073     0.17100
H874        H  0.14141328  0.89370361  0.41980953     0.17100
H875        H  0.15238384  0.77015942  0.41601339     0.17100
C876        C  0.17048763  0.85025349  0.06335167     0.31000
C877        C  0.16555356  0.84450761  0.14282660     0.31000
C878        C  0.15020037  0.86603480  0.08409565    -0.05200
C879        C  0.15257778  0.81002067  0.07854093    -0.06000
C880        C  0.20637176  0.87002071  0.08598397    -0.05900
C881        C  0.14798192  0.86352045  0.12473851    -0.05300
C882        C  0.14933232  0.80742510  0.11897176    -0.06000
C883        C  0.20365924  0.86857759  0.12656331    -0.05900
C884        C  0.13187445  0.88203849  0.13773975    -0.31300
N885        N  0.12319368  0.89435394  0.10606117     0.15200
C886        C  0.13458362  0.88512807  0.07310020    -0.31300
H887        H  0.13231633  0.89243836  0.04353446     0.17100
C888        C  0.13403308  0.77032487  0.12779713    -0.30300
N889        N  0.12901316  0.75034734  0.09389993     0.13900
C890        C  0.14035189  0.77409266  0.06347365    -0.30300
C891        C  0.23780093  0.88863227  0.14178790    -0.30600
N892        N  0.26144515  0.89947149  0.11183205     0.14400
H893        H  0.24482009  0.89433584  0.17269610     0.17100
C894        C  0.24223280  0.88760906  0.07754033    -0.30600
H895        H  0.25334453  0.89056495  0.04848355     0.17100
H896        H  0.13979582  0.76578814  0.03290449     0.17100
H897        H  0.12740010  0.88701871  0.16798826     0.17100
H898        H  0.12767478  0.75870094  0.15680593     0.17100
C899        C  0.16785367  0.84131861  0.26849365    -0.04400
C900        C  0.19041396  0.83397947  0.24601752    -0.01500
C901        C  0.18669039  0.83066814  0.20495530     0.03500
C902        C  0.16322558  0.83846850  0.18676554    -0.04400
C903        C  0.13315844  0.83026334  0.20874232    -0.01500
C904        C  0.13516508  0.83078770  0.25006417     0.03500
C905        C  0.21331648  0.82416997  0.26447792     0.38100
C906        C  0.09893766  0.81411483  0.18935744     0.38100
C907        C  0.10252077  0.81392209  0.27232939     0.36500
C908        C  0.20109150  0.81231949  0.18229782     0.36500
N909        N  0.07631735  0.80000280  0.28978418    -0.38300
N910        N  0.21098768  0.79634357  0.16381861    -0.38300
N911        N  0.07143997  0.80034222  0.17409413    -0.37700
N912        N  0.23123853  0.81557375  0.27859626    -0.37700
C913        C  0.17140891  0.85408001  0.01912924    -0.04400
C914        C  0.19644004  0.88705271  0.50150943    -0.01500
C915        C  0.19913213  0.88759351  0.46024187     0.03500
C916        C  0.17582332  0.85447524  0.43747295    -0.04400
C917        C  0.14338376  0.82747990  0.45561436    -0.01500
C918        C  0.14088814  0.82736280  0.49663947     0.03500
C919        C  0.21488377  0.92281894  0.02415720     0.38100
C920        C  0.11113247  0.80272402  0.43265830     0.38100
C921        C  0.10676834  0.80528166  0.01304806     0.36500
C922        C  0.22113724  0.92354415  0.44192064     0.36500
N923        N  0.07876631  0.78725261  0.02637205    -0.38300
N924        N  0.23841571  0.95257097  0.42789753    -0.38300
N925        N  0.08530063  0.78308978  0.41469097    -0.37700
N926        N  0.22781255  0.95085914  0.04226469    -0.37700
C927        C  0.07677306  0.63303830  0.10683674    -0.04400
C928        C  0.11415708  0.65497295  0.10553003    -0.01500
C929        C  0.13181727  0.69381590  0.09861681     0.03500
C930        C  0.11208306  0.71022639  0.09176094    -0.04400
C931        C  0.07491503  0.68734430  0.08851387    -0.01500
C932        C  0.05721874  0.64886420  0.09599391     0.03500
C933        C  0.13427282  0.63792829  0.11240979     0.38100
C934        C  0.05476933  0.70386786  0.07938074     0.38100
C935        C  0.01872044  0.62569033  0.09293409     0.36500
C936        C  0.17018557  0.71728399  0.09983260     0.36500
N937        N  0.98806164  0.60752001  0.09018655    -0.38300
N938        N  0.20088711  0.73588674  0.10064487    -0.38300
N939        N  0.03872782  0.72022988  0.58598958    -0.37700
N940        N  0.15032831  0.62421657  0.11733446    -0.37700
C941        C  0.37513517  0.95797319  0.12857093    -0.04400
C942        C  0.36093991  0.96814875  0.09824683    -0.01500
C943        C  0.32366462  0.94868939  0.09211032     0.03500
C944        C  0.29991205  0.91853532  0.11637650    -0.04400
C945        C  0.31472243  0.90837884  0.14647711    -0.01500
C946        C  0.35166183  0.92850450  0.15317233     0.03500
C947        C  0.38481239  0.50190321  0.07639223     0.38100
C948        C  0.29290965  0.87691841  0.17125785     0.38100
C949        C  0.36507809  0.92002448  0.18751060     0.36500
C950        C  0.31040047  0.96085768  0.06128305     0.36500
N951        N  0.37515438  0.91314203  0.21520787    -0.38300
N952        N  0.30107684  0.97131934  0.03601808    -0.38300
N953        N  0.27839287  0.85292317  0.19314622    -0.37700
N954        N  0.40451473  0.52773738  0.05845147    -0.37700
C955        C  0.10610913  0.91515614  0.10784396    -0.04400
C956        C  0.06962157  0.89676595  0.11610201    -0.01500
C957        C  0.05341007  0.91749553  0.12144748     0.03500
C958        C  0.07376729  0.95710525  0.11877107    -0.04400
C959        C  0.11031652  0.97529013  0.10904400    -0.01500
C960        C  0.12623287  0.95430189  0.10377301     0.03500
C961        C  0.04885813  0.85632476  0.11922568     0.38100
C962        C  0.13250825  0.01591455  0.10725818     0.38100
C963        C  0.16396979  0.97312105  0.09664005     0.36500
C964        C  0.01563993  0.89779295  0.12899580     0.36500
N965        N  0.19417564  0.98814352  0.09139579    -0.38300
N966        N  0.98545017  0.88185402  0.13481323    -0.38300
N967        N  0.15070707  0.54849122  0.10737716    -0.37700
N968        N  0.03211233  0.82399923  0.12164140    -0.37700
C969        C  0.08562748  0.63580251  0.36616789    -0.04400
C970        C  0.06757075  0.65330464  0.35538817    -0.01500
C971        C  0.08648252  0.69228404  0.35024150     0.03500
C972        C  0.12359134  0.71414826  0.35529453    -0.04400
C973        C  0.14206790  0.69642460  0.36255903    -0.01500
C974        C  0.12314802  0.65704565  0.36719444     0.03500
C975        C  0.02931810  0.63111017  0.34930009     0.38100
C976        C  0.18043205  0.71900121  0.36571878     0.38100
C977        C  0.14214652  0.63867395  0.37345757     0.36500
C978        C  0.06757785  0.71028520  0.34145259     0.36500
N979        N  0.15745078  0.62406352  0.37797179    -0.38300
N980        N  0.05225457  0.72441019  0.33444165    -0.38300
N981        N  0.21109872  0.73717095  0.36824006    -0.37700
N982        N  0.49845275  0.61281155  0.34118909    -0.37700
C983        C  0.30687122  0.92754594  0.34607012    -0.04400
C984        C  0.32739155  0.96700963  0.34960999    -0.01500
C985        C  0.36469976  0.98651477  0.35516090     0.03500
C986        C  0.38171554  0.96624781  0.35770879    -0.04400
C987        C  0.36123109  0.92707308  0.34849718    -0.01500
C988        C  0.32392481  0.90774205  0.34470692     0.03500
C989        C  0.30953194  0.98715895  0.34994009     0.38100
C990        C  0.37842390  0.90651208  0.34213180     0.38100
C991        C  0.30267052  0.86707899  0.34256809     0.36500
C992        C  0.38485148  0.02718802  0.35897533     0.36500
N993        N  0.28580637  0.83457914  0.34180794    -0.38300
N994        N  0.40063693  0.05966279  0.36160548    -0.38300
N995        N  0.39218285  0.89021817  0.33648281    -0.37700
N996        N  0.29515040  0.00312342  0.35038551    -0.37700
C997        C  0.07939692  0.95852195  0.37966404    -0.04400
C998        C  0.07205707  0.92833854  0.40383970    -0.01500
C999        C  0.08496926  0.90511520  0.39397693     0.03500
C1000       C  0.10990784  0.91459076  0.36353790    -0.04400
C1001       C  0.11891204  0.94565912  0.34054368    -0.01500
C1002       C  0.10286225  0.96645492  0.34739118     0.03500
C1003       C  0.05374334  0.92225022  0.44089971     0.38100
C1004       C  0.14636600  0.95786302  0.31115893     0.38100
C1005       C  0.11193447  0.49680607  0.32172860     0.36500
C1006       C  0.07212349  0.87096562  0.41530121     0.36500
N1007       N  0.12018185  0.52186932  0.30181817    -0.38300
N1008       N  0.06169057  0.84374856  0.43237721    -0.38300
N1009       N  0.16838794  0.96788653  0.28780600    -0.37700
N1010       N  0.03994421  0.91700232  0.47107189    -0.37700
C1011       C  0.39224290  0.59821931  0.24123035    -0.04400
C1012       C  0.42917744  0.61985933  0.23679224    -0.01500
C1013       C  0.44825287  0.60239294  0.23019582     0.03500
C1014       C  0.43062760  0.56241799  0.23086394    -0.04400
C1015       C  0.39388397  0.54136182  0.24088346    -0.01500
C1016       C  0.37477395  0.55919371  0.24460595     0.03500
C1017       C  0.44748074  0.66045579  0.23940875     0.38100
C1018       C  0.37497530  0.50138718  0.24729103     0.38100
C1019       C  0.33678306  0.53739238  0.25097899     0.36500
C1020       C  0.48571509  0.62629590  0.22119799     0.36500
N1021       N  0.30642519  0.51987393  0.25585506    -0.38300
N1022       N  0.51541033  0.64563648  0.21337742    -0.38300
N1023       N  0.35796112  0.96955327  0.25108210    -0.37700
N1024       N  0.46221363  0.69283953  0.24236090    -0.37700
C1025       C  0.41191245  0.80749153  0.24117088    -0.04400
C1026       C  0.44629094  0.83133110  0.25741547    -0.01500
C1027       C  0.46666325  0.87013573  0.24854754     0.03500
C1028       C  0.45355332  0.88460651  0.22101483    -0.04400
C1029       C  0.41907621  0.85938826  0.20420692    -0.01500
C1030       C  0.39764332  0.82282741  0.21756135     0.03500
C1031       C  0.46055713  0.81580961  0.28301926     0.38100
C1032       C  0.40540465  0.86889265  0.17101636     0.38100
C1033       C  0.36014433  0.80083910  0.20739641     0.36500
C1034       C  0.50145325  0.89433902  0.26657741     0.36500
N1035       N  0.33017641  0.78434482  0.19972136    -0.38300
N1036       N  0.52921227  0.91356434  0.28108935    -0.38300
N1037       N  0.39417221  0.87531259  0.14400615    -0.37700
N1038       N  0.47185855  0.80342975  0.30369273    -0.37700
C1039       C  0.20389868  0.59862570  0.22605201    -0.04400
C1040       C  0.18645409  0.61809074  0.22639083    -0.01500
C1041       C  0.14984375  0.59889788  0.21798874     0.03500
C1042       C  0.13033806  0.56001075  0.20970270    -0.04400
C1043       C  0.14746934  0.53982327  0.21228758    -0.01500
C1044       C  0.18446627  0.55951055  0.21929125     0.03500
C1045       C  0.20653621  0.65821015  0.23425947     0.38100
C1046       C  0.12770597  0.49912186  0.20761562     0.38100
C1047       C  0.20312984  0.54012322  0.21855821     0.36500
C1048       C  0.13178637  0.61883846  0.21877795     0.36500
N1049       N  0.21848463  0.52517714  0.21763422    -0.38300
N1050       N  0.11658046  0.63391115  0.21910230    -0.38300
N1051       N  0.11289148  0.46671138  0.20449234    -0.37700
N1052       N  0.22227950  0.69032285  0.24049397    -0.37700
C1053       C  0.39456788  0.60472406  0.48051995    -0.04400
C1054       C  0.43183768  0.62477888  0.48245205    -0.01500
C1055       C  0.44960566  0.60560364  0.47905967     0.03500
C1056       C  0.43014229  0.56620237  0.47059625    -0.04400
C1057       C  0.39227968  0.54618021  0.46989603    -0.01500
C1058       C  0.37489970  0.56549259  0.47582350     0.03500
C1059       C  0.45195192  0.66540952  0.48627328     0.38100
C1060       C  0.37056966  0.50591827  0.46187023     0.38100
C1061       C  0.33577518  0.54300814  0.97451852     0.36500
C1062       C  0.48789141  0.62677982  0.48464061     0.36500
N1063       N  0.30508472  0.52643160  0.97320225    -0.38300
N1064       N  0.01780854  0.64729413  0.47901024    -0.38300
N1065       N  0.35324786  0.97390845  0.45688827    -0.37700
N1066       N  0.46847053  0.69789646  0.48867459    -0.37700
C1067       C  0.41741257  0.81019899  0.48317580    -0.04400
C1068       C  0.41571650  0.83490957  0.51103815    -0.01500
C1069       C  0.43659760  0.87404892  0.50610744     0.03500
C1070       C  0.45651569  0.88844781  0.47155047    -0.04400
C1071       C  0.45796470  0.86395542  0.44367557    -0.01500
C1072       C  0.44095645  0.82556488  0.45119291     0.03500
C1073       C  0.39057091  0.81911468  0.04130200     0.38100
C1074       C  0.47544304  0.87776676  0.40627883     0.38100
C1075       C  0.44806827  0.80205999  0.42607955     0.36500
C1076       C  0.43517763  0.89908567  0.53521347     0.36500
N1077       N  0.45387867  0.78338200  0.40607080    -0.38300
N1078       N  0.43241632  0.91670899  0.05695152    -0.38300
N1079       N  0.98890428  0.88842318  0.37558601    -0.37700
N1080       N  0.37123475  0.80798981  0.06752633    -0.37700
C1081       C  0.12812108  0.56344782  0.48048265    -0.04400
C1082       C  0.14609552  0.54624286  0.49336865    -0.01500
C1083       C  0.18324319  0.56794211  0.50008014     0.03500
C1084       C  0.20280739  0.60689873  0.49495752    -0.04400
C1085       C  0.18327836  0.62453873  0.98763371    -0.01500
C1086       C  0.14602859  0.60323543  0.98167381     0.03500
C1087       C  0.12715049  0.50607535  0.49852584     0.38100
C1088       C  0.20345616  0.66495993  0.98436050     0.38100
C1089       C  0.12737269  0.62220631  0.97683351     0.36500
C1090       C  0.20212516  0.55006217  0.50959192     0.36500
N1091       N  0.11242085  0.63733762  0.97343533    -0.38300
N1092       N  0.21760764  0.53615361  0.51680963    -0.38300
N1093       N  0.21959494  0.69725595  0.98163151    -0.37700
N1094       N  0.11283071  0.47418738  0.50342003    -0.37700
C1095       C  0.32361577  0.66685263  0.40405611    -0.04400
C1096       C  0.31930982  0.69299994  0.38403129    -0.01500
C1097       C  0.32026738  0.69288869  0.34272811     0.03500
C1098       C  0.32492415  0.66622026  0.32213433    -0.04400
C1099       C  0.31356467  0.63255198  0.34174202    -0.01500
C1100       C  0.31326923  0.63297881  0.38304225     0.03500
C1101       C  0.30916373  0.71618658  0.40504584     0.38100
C1102       C  0.29686262  0.59675223  0.32011503     0.39300
C1103       C  0.29764361  0.59779814  0.40316697     0.36500
C1104       C  0.31155138  0.71637132  0.32188056     0.36500
N1105       N  0.28471160  0.56957888  0.41894942    -0.38300
N1106       N  0.30421149  0.73480131  0.30533940    -0.38300
N1107       N  0.28282899  0.56808836  0.30306225    -0.37700
N1108       N  0.30076454  0.73446986  0.42161629    -0.37700
C1109       C  0.33967495  0.67624627  0.15367143    -0.04400
C1110       C  0.36959233  0.68195042  0.13260490    -0.01500
C1111       C  0.37016927  0.68446815  0.09135117     0.03500
C1112       C  0.34053058  0.68035125  0.07160369    -0.04400
C1113       C  0.32006126  0.69062698  0.09361799    -0.01500
C1114       C  0.31892261  0.68781108  0.13464224     0.03500
C1115       C  0.40189548  0.69154797  0.15304458     0.38100
C1116       C  0.30390407  0.70841665  0.07494993     0.38100
C1117       C  0.29844707  0.69972109  0.15648043     0.36500
C1118       C  0.40332356  0.69831661  0.07083691     0.36500
N1119       N  0.28116847  0.70844602  0.17303116    -0.38300
N1120       N  0.43018015  0.71017060  0.05511085    -0.38300
N1121       N  0.29124089  0.72284410  0.06027691    -0.37700
N1122       N  0.42819220  0.70001469  0.16870364    -0.37700
C1123       C  0.32761713  0.66861497  0.94731397     0.31000
C1124       C  0.33705686  0.67539923  0.52814166     0.31000
C1125       C  0.34499202  0.64880329  0.96474354    -0.05200
C1126       C  0.35178219  0.70855525  0.96511640    -0.06000
C1127       C  0.29350592  0.65309186  0.97057370    -0.05900
C1128       C  0.35007199  0.65239530  0.50674832    -0.05300
C1129       C  0.35721814  0.71257695  0.50699965    -0.06000
C1130       C  0.29844438  0.65584119  0.51175796    -0.05900
C1131       C  0.36658619  0.63398789  0.51652463    -0.31300
N1132       N  0.37376365  0.62178127  0.98178050     0.15200
C1133       C  0.36260561  0.63222749  0.95068369    -0.31300
H1134       H  0.36752731  0.62849931  0.92019184     0.17100
C1135       C  0.38228493  0.74923106  0.51773417    -0.30300
N1136       N  0.39311663  0.76991581  0.48493457     0.13900
C1137       C  0.37387912  0.74420824  0.95144682    -0.30300
C1138       C  0.26385353  0.63792865  0.52571034    -0.30600
N1139       N  0.23946171  0.62697179  0.99471886     0.14400
H1140       H  0.25577740  0.63279185  0.55612554     0.17100
C1141       C  0.25817986  0.63607111  0.96102499    -0.30600
H1142       H  0.24672453  0.62998227  0.93164412     0.17100
H1143       H  0.37639108  0.75195476  0.92114428     0.17100
H1144       H  0.37187571  0.62869017  0.54577871     0.17100
H1145       H  0.39264046  0.75971546  0.54722650     0.17100
C1146       C  0.33839870  0.67502889  0.69824205     0.31000
C1147       C  0.32999061  0.66980338  0.77775756     0.31000
C1148       C  0.35149756  0.65219263  0.71810854    -0.05200
C1149       C  0.35775389  0.71190646  0.72222189    -0.06000
C1150       C  0.29999953  0.65503498  0.71287762    -0.05900
C1151       C  0.34810042  0.65042185  0.75906860    -0.05300
C1152       C  0.35420785  0.70990608  0.76272081    -0.06000
C1153       C  0.29590140  0.65331663  0.75322395    -0.05900
C1154       C  0.36438424  0.63257112  0.77198455    -0.31300
N1155       N  0.37575336  0.62193076  0.74013639     0.15200
C1156       C  0.36759784  0.63316510  0.70718864    -0.31300
H1157       H  0.37364729  0.62829759  0.67757369     0.17100
C1158       C  0.37570361  0.74639174  0.77795227    -0.30300
N1159       N  0.39100027  0.76949783  0.74727030     0.13900
C1160       C  0.38052019  0.74859899  0.71336920    -0.30300
C1161       C  0.26000250  0.63398296  0.76065068    -0.30600
N1162       N  0.24240986  0.62356125  0.72563911     0.14400
H1163       H  0.24755940  0.62718513  0.78917045     0.17100
C1164       C  0.26636488  0.63532266  0.69628006    -0.30600
H1165       H  0.25964195  0.62973520  0.66522287     0.17100
H1166       H  0.38824283  0.75972625  0.68409126     0.17100
H1167       H  0.36814902  0.62801800  0.80217281     0.17100
H1168       H  0.37923600  0.75562477  0.80851756     0.17100
O1169       O  0.06705558  0.51074246  0.98535648    -0.79200
O1170       O  0.48120946  0.56669627  0.94625979    -0.79200
O1171       O  0.06436889  0.57067493  0.86586445    -0.79200
O1172       O  0.46340090  0.98387199  0.50560203    -0.79200
O1173       O  0.04110304  0.59096152  0.90698121    -0.79300
O1174       O  0.02010408  0.02997665  0.50388847    -0.79200
O1175       O  0.43358124  0.51185914  0.95702389    -0.79200
O1176       O  0.07830504  0.55007511  0.93738138    -0.79200
C1177       C  0.08897785  0.54035539  0.96778052     1.10500
C1178       C  0.44987698  0.54746518  0.95883161     1.10400
C1179       C  0.06375098  0.59788318  0.88121335     1.10500
C1180       C  0.49173410  0.00942166  0.52402514     1.10400
O1181       O  0.49755159  0.95422925  0.98021705    -0.79200
O1182       O  0.50110841  0.54223718  0.83732776    -0.79300
O1183       O  0.07476819  0.01342114  0.86983437    -0.79200
O1184       O  0.42783264  0.96382534  0.89199180    -0.79200
O1185       O  0.44017623  0.01992549  0.87912162    -0.79200
O1186       O  0.04055476  0.97489689  0.91544441    -0.79200
O1187       O  0.45652866  0.93488987  0.93529953    -0.79200
O1188       O  0.00979431  0.49634345  0.84118810    -0.79200
Co1189     Co  0.02863527  0.00578164  0.95655861     1.51500
Co1190     Co  0.49232002  0.55293212  0.89488077     1.51700
Co1191     Co  0.03967862  0.52008153  0.89133240     1.51600
Co1192     Co  0.44864180  0.97571985  0.94555098     1.51500
O1193       O  0.99675940  0.51324301  0.92106511    -1.41100
C1194       C  0.47147296  0.92753413  0.96109920     1.10400
C1195       C  0.00251047  0.51558690  0.81941541     1.10500
C1196       C  0.06495523  0.98424914  0.88890892     1.10500
C1197       C  0.41948935  0.98445552  0.87569854     1.10400
O1198       O  0.07150482  0.50900364  0.72347825    -0.79200
O1199       O  0.47941332  0.56533181  0.69935886    -0.79200
O1200       O  0.05682601  0.56744236  0.61013560    -0.79200
O1201       O  0.46932513  0.98651674  0.75875855    -0.79200
O1202       O  0.03671690  0.58853888  0.65481388    -0.79300
O1203       O  0.02533578  0.02755696  0.75177488    -0.79200
O1204       O  0.43373141  0.51056223  0.71444008    -0.79200
O1205       O  0.07694978  0.54718564  0.67639345    -0.79200
C1206       C  0.09102364  0.53763814  0.70316099     1.10500
C1207       C  0.44969224  0.54618810  0.71582063     1.10400
C1208       C  0.05679677  0.59479567  0.62623669     1.10500
C1209       C  0.49935847  0.00893582  0.77628591     1.10400
O1210       O  0.49728539  0.94879869  0.73283484    -0.79200
O1211       O  0.49169060  0.53977655  0.58713014    -0.79300
O1212       O  0.06680587  0.00858375  0.60797904    -0.79200
O1213       O  0.42848072  0.96279937  0.64806836    -0.79200
O1214       O  0.43353670  0.01588354  0.63793503    -0.79200
O1215       O  0.03666524  0.97120685  0.65698223    -0.79200
O1216       O  0.46039425  0.93631009  0.68704311    -0.79200
O1217       O  0.00029538  0.49284536  0.58926496    -0.79200
Co1218     Co  0.02992301  0.00264300  0.70217395     1.51500
Co1219     Co  0.48647513  0.55081340  0.64620588     1.51700
Co1220     Co  0.03456160  0.51694570  0.63548969     1.51600
Co1221     Co  0.45163656  0.97666667  0.69998477     1.51500
O1222       O  0.99588438  0.51183065  0.67183366    -1.41100
C1223       C  0.47077995  0.92457293  0.71372502     1.10400
C1224       C  0.99350475  0.51324635  0.56904735     1.10500
C1225       C  0.05828952  0.97991623  0.62753758     1.10500
C1226       C  0.41477521  0.98025675  0.63721283     1.10400
C1227       C  0.17390943  0.84983141  0.81272330     0.31000
C1228       C  0.18017173  0.85454762  0.89250800     0.31000
C1229       C  0.15612911  0.86820137  0.83443099    -0.05200
C1230       C  0.15932266  0.81255625  0.83318142    -0.06000
C1231       C  0.21263625  0.87452008  0.82931511    -0.05900
C1232       C  0.15965585  0.87024379  0.87479815    -0.05300
C1233       C  0.16354024  0.81497799  0.87344667    -0.06000
C1234       C  0.21571250  0.87584824  0.87038459    -0.05900
C1235       C  0.14579438  0.89011814  0.88991891    -0.31300
N1236       N  0.13231494  0.89944469  0.86015790     0.15200
C1237       C  0.13930182  0.88695862  0.82585137    -0.31300
H1238       H  0.13267851  0.89118847  0.79680928     0.17100
C1239       C  0.15249892  0.77937379  0.88557431    -0.30300
N1240       N  0.14031928  0.75538893  0.85367254     0.13900
C1241       C  0.14439708  0.77537491  0.82145272    -0.30300
C1242       C  0.25146780  0.89492949  0.87945113    -0.30600
N1243       N  0.27017584  0.90741848  0.84574857     0.14400
H1244       H  0.26324056  0.89901092  0.90832746     0.17100
C1245       C  0.24694552  0.89540699  0.81492670    -0.30600
H1246       H  0.25456009  0.90050174  0.78432403     0.17100
H1247       H  0.13710475  0.76365054  0.79162801     0.17100
H1248       H  0.14622612  0.89797123  0.92067517     0.17100
H1249       H  0.15237667  0.77126829  0.91540222     0.17100
C1250       C  0.17037975  0.84990317  0.56383281     0.31000
C1251       C  0.16537258  0.84446613  0.64323157     0.31000
C1252       C  0.14965214  0.86529108  0.58436317    -0.05200
C1253       C  0.15294547  0.80980159  0.57915020    -0.06000
C1254       C  0.20628795  0.87008149  0.58653380    -0.05900
C1255       C  0.14748931  0.86303566  0.62498058    -0.05300
C1256       C  0.14956615  0.80734092  0.61953715    -0.06000
C1257       C  0.20352236  0.86888154  0.62708800    -0.05900
C1258       C  0.13130491  0.88154043  0.63778170    -0.31300
N1259       N  0.12210944  0.89314834  0.60596554     0.15200
C1260       C  0.13359936  0.88387953  0.57312997    -0.31300
H1261       H  0.13126610  0.89100087  0.54350314     0.17100
C1262       C  0.13428154  0.77028760  0.62850309    -0.30300
N1263       N  0.12947076  0.75020341  0.59472574     0.13900
C1264       C  0.14092438  0.77386693  0.56423161    -0.30300
C1265       C  0.23766220  0.88902047  0.64235176    -0.30600
N1266       N  0.26146122  0.89943278  0.61253833     0.14400
H1267       H  0.24446242  0.89512891  0.67332091     0.17100
C1268       C  0.24213620  0.88713217  0.57823793    -0.30600
H1269       H  0.25299117  0.88912286  0.54925863     0.17100
H1270       H  0.14022836  0.76543913  0.53364751     0.17100
H1271       H  0.12726406  0.88716654  0.66798112     0.17100
H1272       H  0.12751933  0.75871399  0.65748744     0.17100
C1273       C  0.16845230  0.84284579  0.76857389    -0.04400
C1274       C  0.19014857  0.83413196  0.74623168    -0.01500
C1275       C  0.18620136  0.83035989  0.70525685     0.03500
C1276       C  0.16290255  0.83838602  0.68705300    -0.04400
C1277       C  0.13329849  0.83141643  0.70925838    -0.01500
C1278       C  0.13581568  0.83290124  0.75053105     0.03500
C1279       C  0.21241360  0.82356142  0.76486842     0.38100
C1280       C  0.09891853  0.81589015  0.69043288     0.38100
C1281       C  0.10356319  0.81771631  0.77332504     0.36500
C1282       C  0.20107529  0.81235566  0.68273255     0.36500
N1283       N  0.07764805  0.80509943  0.79119133    -0.38300
N1284       N  0.21164923  0.79680729  0.66464296    -0.38300
N1285       N  0.07126383  0.80296005  0.67578872    -0.37700
N1286       N  0.22975016  0.81431729  0.77919075    -0.37700
C1287       C  0.17089826  0.85345521  0.51962103    -0.04400
C1288       C  0.19744347  0.88764298  0.00138096    -0.01500
C1289       C  0.20119239  0.88823216  0.96024109     0.03500
C1290       C  0.17757638  0.85556860  0.93710028    -0.04400
C1291       C  0.14454055  0.82914505  0.95471063    -0.01500
C1292       C  0.14161012  0.82843868  0.99569363     0.03500
C1293       C  0.21505487  0.92222544  0.52433390     0.38100
C1294       C  0.11220771  0.80606048  0.93124804     0.38100
C1295       C  0.10628660  0.80398256  0.51453192     0.36500
C1296       C  0.22461988  0.92403035  0.94221883     0.36500
N1297       N  0.07856338  0.78571962  0.52845003    -0.38300
N1298       N  0.24299465  0.95291644  0.92829891    -0.38300
N1299       N  0.08645174  0.78797963  0.91265323    -0.37700
N1300       N  0.22920957  0.95029470  0.54249372    -0.37700
C1301       C  0.07569465  0.63288384  0.60966166    -0.04400
C1302       C  0.11281873  0.65384554  0.60414875    -0.01500
C1303       C  0.13066856  0.69249359  0.59590657     0.03500
C1304       C  0.11144091  0.70994134  0.59277459    -0.04400
C1305       C  0.07422801  0.68825103  0.59457241    -0.01500
C1306       C  0.05631407  0.64993042  0.60300426     0.03500
C1307       C  0.13284426  0.63646948  0.60951050     0.38100
C1308       C  0.05458925  0.70614201  0.58975097     0.38100
C1309       C  0.01785265  0.62842014  0.60593567     0.36500
C1310       C  0.16892526  0.71490298  0.59237237     0.36500
N1311       N  0.98723406  0.61153217  0.60846759    -0.38300
N1312       N  0.19949746  0.73277808  0.58936017    -0.38300
N1313       N  0.03812576  0.71643230  0.07206531    -0.37700
N1314       N  0.14891224  0.62268189  0.61382685    -0.37700
C1315       C  0.37556634  0.95893982  0.62951251    -0.04400
C1316       C  0.36127580  0.96627383  0.59692756    -0.01500
C1317       C  0.32394700  0.94677480  0.59089083     0.03500
C1318       C  0.30008225  0.91868308  0.61719453    -0.04400
C1319       C  0.31508609  0.91063375  0.64911927    -0.01500
C1320       C  0.35213871  0.93133041  0.65584396     0.03500
C1321       C  0.38528850  0.49235926  0.56813414     0.38100
C1322       C  0.29335634  0.88045210  0.67540261     0.38100
C1323       C  0.36584447  0.92500257  0.69139066     0.36500
C1324       C  0.31085305  0.95665303  0.55776379     0.36500
N1325       N  0.37613529  0.91972668  0.72002044    -0.38300
N1326       N  0.30145583  0.96500518  0.53066116    -0.38300
N1327       N  0.27833578  0.85734512  0.69814454    -0.37700
N1328       N  0.40558696  0.51382886  0.54642849    -0.37700
C1329       C  0.10533241  0.91423492  0.60753971    -0.04400
C1330       C  0.06868403  0.89609754  0.61481211    -0.01500
C1331       C  0.05276740  0.91717686  0.61943453     0.03500
C1332       C  0.07361545  0.95682473  0.61731780    -0.04400
C1333       C  0.11026999  0.97470954  0.60843527    -0.01500
C1334       C  0.12588876  0.95339894  0.60378367     0.03500
C1335       C  0.04741582  0.85561178  0.61752536     0.38100
C1336       C  0.13271035  0.01527312  0.60630929     0.38100
C1337       C  0.16366935  0.97180448  0.59719821     0.36500
C1338       C  0.01474572  0.89782722  0.62515938     0.36500
N1339       N  0.19387535  0.98636984  0.59226095    -0.38300
N1340       N  0.98434631  0.88222094  0.62931613    -0.38300
N1341       N  0.15079191  0.54759337  0.60310255    -0.37700
N1342       N  0.03017035  0.82326164  0.61961792    -0.37700
C1343       C  0.08507215  0.63676750  0.86670386    -0.04400
C1344       C  0.06688165  0.65349958  0.85371237    -0.01500
C1345       C  0.08548647  0.69238834  0.84765521     0.03500
C1346       C  0.12233379  0.71507073  0.85487673    -0.04400
C1347       C  0.14093716  0.69818816  0.86531620    -0.01500
C1348       C  0.12244431  0.65894063  0.87058471     0.03500
C1349       C  0.02869927  0.63074909  0.84709668     0.38100
C1350       C  0.17907007  0.72152857  0.87098580     0.38100
C1351       C  0.14173190  0.64174124  0.88094553     0.36500
C1352       C  0.06639418  0.70944242  0.83588446     0.36500
N1353       N  0.15740199  0.62819272  0.88883664    -0.38300
N1354       N  0.05091390  0.72277103  0.82640237    -0.38300
N1355       N  0.20954379  0.74031502  0.87549747    -0.37700
N1356       N  0.49938974  0.61329760  0.84267304    -0.37700
C1357       C  0.30841128  0.92771737  0.84389659    -0.04400
C1358       C  0.32886943  0.96718779  0.84757302    -0.01500
C1359       C  0.36607337  0.98672331  0.85386495     0.03500
C1360       C  0.38308957  0.96652785  0.85699433    -0.04400
C1361       C  0.36275953  0.92729441  0.84774795    -0.01500
C1362       C  0.32555282  0.90800242  0.84268572     0.03500
C1363       C  0.31112482  0.98742394  0.84698427     0.38100
C1364       C  0.37981064  0.90636951  0.84347527     0.38100
C1365       C  0.30443437  0.86738356  0.83899172     0.36500
C1366       C  0.38609497  0.02737435  0.85821007     0.36500
N1367       N  0.28783698  0.83489989  0.83672425    -0.38300
N1368       N  0.40190798  0.05982260  0.86141013    -0.38300
N1369       N  0.39330806  0.88959974  0.83983049    -0.37700
N1370       N  0.29707211  0.00370993  0.84660318    -0.37700
C1371       C  0.08104323  0.96097951  0.88013716    -0.04400
C1372       C  0.07451243  0.93136836  0.90474288    -0.01500
C1373       C  0.08902990  0.90942230  0.89596137     0.03500
C1374       C  0.11394201  0.91910968  0.86537993    -0.04400
C1375       C  0.12220328  0.94977365  0.84207943    -0.01500
C1376       C  0.10499627  0.96950665  0.84821975     0.03500
C1377       C  0.05486115  0.92430557  0.94096241     0.38100
C1378       C  0.15013147  0.96271602  0.81316594     0.38100
C1379       C  0.11336895  0.49926239  0.82184951     0.36500
C1380       C  0.07787497  0.87645353  0.91875437     0.36500
N1381       N  0.12006065  0.52321283  0.80091570    -0.38300
N1382       N  0.06883114  0.85036647  0.93732373    -0.38300
N1383       N  0.17258434  0.97336300  0.79027114    -0.37700
N1384       N  0.03993471  0.91824440  0.97046948    -0.37700
C1385       C  0.39486110  0.60333244  0.74083411    -0.04400
C1386       C  0.43197674  0.62418280  0.73754329    -0.01500
C1387       C  0.45045575  0.60580861  0.73288318     0.03500
C1388       C  0.43172695  0.56576217  0.73146202    -0.04400
C1389       C  0.39470227  0.54539056  0.73994412    -0.01500
C1390       C  0.37646263  0.56416560  0.74354909     0.03500
C1391       C  0.45112159  0.66483583  0.73889206     0.38100
C1392       C  0.37461645  0.50530540  0.74562309     0.38100
C1393       C  0.33830860  0.54310294  0.74870500     0.36500
C1394       C  0.48881829  0.62875866  0.72935423     0.36500
N1395       N  0.30782522  0.52604989  0.75256833    -0.38300
N1396       N  0.51937852  0.64714550  0.72629838    -0.38300
N1397       N  0.35752839  0.97325652  0.75129798    -0.37700
N1398       N  0.46670443  0.69731565  0.74038703    -0.37700
C1399       C  0.40958320  0.80961276  0.74772460    -0.04400
C1400       C  0.44563651  0.83192472  0.75883414    -0.01500
C1401       C  0.46614339  0.87000189  0.74850851     0.03500
C1402       C  0.45100291  0.88447641  0.72380606    -0.04400
C1403       C  0.41519972  0.86074887  0.71134312    -0.01500
C1404       C  0.39399603  0.82548824  0.72734706     0.03500
C1405       C  0.46164848  0.81522763  0.77957073     0.38100
C1406       C  0.40052221  0.86999959  0.67904859     0.38100
C1407       C  0.35583854  0.80482778  0.72202042     0.36500
C1408       C  0.50314254  0.89297284  0.76107394     0.36500
N1409       N  0.32536142  0.78941520  0.71846454    -0.38300
N1410       N  0.53260588  0.91129056  0.77111249    -0.38300
N1411       N  0.38896006  0.87627203  0.65224725    -0.37700
N1412       N  0.47456162  0.80196905  0.79608331    -0.37700
C1413       C  0.20455509  0.60223930  0.72037721    -0.04400
C1414       C  0.18614905  0.62064434  0.71938320    -0.01500
C1415       C  0.14898574  0.59972682  0.71359264     0.03500
C1416       C  0.13001780  0.56008253  0.70999571    -0.04400
C1417       C  0.14873072  0.54173733  0.71147271    -0.01500
C1418       C  0.18597613  0.56296097  0.71570496     0.03500
C1419       C  0.20572638  0.66119222  0.72403804     0.38100
C1420       C  0.12992947  0.50106749  0.70807696     0.38100
C1421       C  0.20560470  0.54470698  0.71434246     0.36500
C1422       C  0.13029747  0.61898514  0.71219318     0.36500
N1423       N  0.22139588  0.53026737  0.71276851    -0.38300
N1424       N  0.11537230  0.63431843  0.71084594    -0.38300
N1425       N  0.11502130  0.46863475  0.70582457    -0.37700
N1426       N  0.22125408  0.69357798  0.72784076    -0.37700
C1427       C  0.39292906  0.60331263  0.97940428    -0.04400
C1428       C  0.43022203  0.62441217  0.97993491    -0.01500
C1429       C  0.44906594  0.60638351  0.97557414     0.03500
C1430       C  0.43047351  0.56648296  0.97055534    -0.04400
C1431       C  0.39255980  0.54547975  0.97210420    -0.01500
C1432       C  0.37424098  0.56405630  0.97582384     0.03500
C1433       C  0.44916449  0.66503305  0.98322489     0.38100
C1434       C  0.37161785  0.50472434  0.96933463     0.38100
C1435       C  0.33646181  0.54522670  0.47653630     0.36500
C1436       C  0.48760217  0.62959985  0.97556398     0.36500
N1437       N  0.30579934  0.52912588  0.47748716    -0.38300
N1438       N  0.01875301  0.64472407  0.98799556    -0.38300
N1439       N  0.35339266  0.97298601  0.96097751    -0.37700
N1440       N  0.46460610  0.69749502  0.98544062    -0.37700
C1441       C  0.41599905  0.80881889  0.98017383    -0.04400
C1442       C  0.41500727  0.83356150  0.00866196    -0.01500
C1443       C  0.43608414  0.87280345  0.00417118     0.03500
C1444       C  0.45621780  0.88766653  0.96985194    -0.04400
C1445       C  0.45677010  0.86320174  0.94107950    -0.01500
C1446       C  0.43888587  0.82441626  0.94757209     0.03500
C1447       C  0.39084566  0.82053780  0.54330780     0.38100
C1448       C  0.47425341  0.87754107  0.90377192     0.38100
C1449       C  0.44450629  0.80085870  0.92063546     0.36500
C1450       C  0.43437671  0.89757496  0.03338075     0.36500
N1451       N  0.44915113  0.78228759  0.89896840    -0.38300
N1452       N  0.43355044  0.91835637  0.55889839    -0.38300
N1453       N  0.98964318  0.88849336  0.87659544    -0.37700
N1454       N  0.37114375  0.80956388  0.56921040    -0.37700
C1455       C  0.12679191  0.56354364  0.98199235    -0.04400
C1456       C  0.14469718  0.54603846  0.99409312    -0.01500
C1457       C  0.18176003  0.56759570  0.00082607     0.03500
C1458       C  0.20126275  0.60655046  0.99595987    -0.04400
C1459       C  0.18485793  0.62457715  0.48510950    -0.01500
C1460       C  0.14767633  0.60311624  0.47835703     0.03500
C1461       C  0.12580192  0.50582156  0.99882220     0.38100
C1462       C  0.20504526  0.66495098  0.48124649     0.38100
C1463       C  0.12951059  0.62210958  0.47046833     0.36500
C1464       C  0.20053549  0.54961094  0.01041947     0.36500
N1465       N  0.11506215  0.63739151  0.46451149    -0.38300
N1466       N  0.21577177  0.53549360  0.01790640    -0.38300
N1467       N  0.22116574  0.69720698  0.47815201    -0.37700
N1468       N  0.11175692  0.47394896  0.00360447    -0.37700
C1469       C  0.32076755  0.66495778  0.90317080    -0.04400
C1470       C  0.31536048  0.69070117  0.88388901    -0.01500
C1471       C  0.31627400  0.69125592  0.84261700     0.03500
C1472       C  0.32229454  0.66585688  0.82146889    -0.04400
C1473       C  0.31171717  0.63204335  0.84016522    -0.01500
C1474       C  0.31131493  0.63166625  0.88145230     0.03500
C1475       C  0.30462998  0.71301031  0.90568521     0.38100
C1476       C  0.29559687  0.59683310  0.81755837     0.39300
C1477       C  0.29617784  0.59615877  0.90074923     0.36500
C1478       C  0.30630553  0.71397426  0.82232052     0.36500
N1479       N  0.28364875  0.56761606  0.91579552    -0.38300
N1480       N  0.29784610  0.73166472  0.80619160    -0.38300
N1481       N  0.28184155  0.56864370  0.79964649    -0.37700
N1482       N  0.29562913  0.73045039  0.92292251    -0.37700
C1483       C  0.34280591  0.68197709  0.65429025    -0.04400
C1484       C  0.37256351  0.68704476  0.63368214    -0.01500
C1485       C  0.37235005  0.68728124  0.59228120     0.03500
C1486       C  0.34217327  0.68206390  0.57242560    -0.04400
C1487       C  0.32241234  0.69386542  0.59360389    -0.01500
C1488       C  0.32245014  0.69354760  0.63474755     0.03500
C1489       C  0.40543568  0.69915948  0.65444152     0.38100
C1490       C  0.30606530  0.71087266  0.57374733     0.38100
C1491       C  0.30409101  0.70823825  0.65619715     0.36500
C1492       C  0.40524591  0.70021188  0.57154394     0.36500
N1493       N  0.28886467  0.71965242  0.67250634    -0.38300
N1494       N  0.43194373  0.71137619  0.55567867    -0.38300
N1495       N  0.29351324  0.72486923  0.55792559    -0.37700
N1496       N  0.43206463  0.70965738  0.67052504    -0.37700
C1497       C  0.82747801  0.16884897  0.44719774     0.31000
C1498       C  0.83701336  0.17558717  0.02794586     0.31000
C1499       C  0.84493576  0.14906789  0.46445973    -0.05200
C1500       C  0.85150234  0.20871309  0.46523893    -0.06000
C1501       C  0.79332201  0.15313723  0.47041987    -0.05900
C1502       C  0.85002377  0.15262726  0.00642781    -0.05300
C1503       C  0.85707305  0.21279107  0.00685070    -0.06000
C1504       C  0.79838013  0.15602033  0.01166836    -0.05900
C1505       C  0.86648815  0.13413189  0.01606884    -0.31300
N1506       N  0.87375358  0.12202724  0.48119489     0.15200
C1507       C  0.86266902  0.13268194  0.45021851    -0.31300
H1508       H  0.86768344  0.12919062  0.41969599     0.17100
C1509       C  0.88200289  0.24948409  0.01760550    -0.30300
N1510       N  0.89269551  0.27016649  0.98480938     0.13900
C1511       C  0.87353883  0.24446251  0.45182854    -0.30300
C1512       C  0.76384277  0.13819312  0.02573283    -0.30600
N1513       N  0.73927572  0.12704110  0.49452421     0.14400
H1514       H  0.75583623  0.13308575  0.05616821     0.17100
C1515       C  0.75802384  0.13627173  0.46084573    -0.30600
H1516       H  0.74660825  0.13040300  0.43145800     0.17100
H1517       H  0.87613697  0.25238985  0.42157684     0.17100
H1518       H  0.87178366  0.12875521  0.04528390     0.17100
H1519       H  0.89236377  0.26001209  0.04709456     0.17100
C1520       C  0.83849394  0.17482283  0.19799732     0.31000
C1521       C  0.83011700  0.16965588  0.27753639     0.31000
C1522       C  0.85179229  0.15218429  0.21791116    -0.05200
C1523       C  0.85771855  0.21170061  0.22194109    -0.06000
C1524       C  0.80008660  0.15468770  0.21264759    -0.05900
C1525       C  0.84839333  0.15042405  0.25888773    -0.05300
C1526       C  0.85420061  0.20971032  0.26243739    -0.06000
C1527       C  0.79600280  0.15300428  0.25299908    -0.05900
C1528       C  0.86506654  0.13298954  0.27184785    -0.31300
N1529       N  0.87675057  0.12265992  0.24002283     0.15200
C1530       C  0.86828921  0.13355952  0.20704673    -0.31300
H1531       H  0.87436351  0.12869919  0.17744501     0.17100
C1532       C  0.87575848  0.24614564  0.27768502    -0.30300
N1533       N  0.89103795  0.26921818  0.24700602     0.13900
C1534       C  0.88050993  0.24837542  0.21308527    -0.30300
C1535       C  0.76010428  0.13370849  0.26043451    -0.30600
N1536       N  0.74249282  0.12328431  0.22543169     0.14400
H1537       H  0.74767068  0.12696143  0.28897022     0.17100
C1538       C  0.76644266  0.13501328  0.19606165    -0.30600
H1539       H  0.75971443  0.12945482  0.16501077     0.17100
H1540       H  0.88825538  0.25952963  0.18381943     0.17100
H1541       H  0.86886902  0.12850745  0.30205348     0.17100
H1542       H  0.87938498  0.25537592  0.30825802     0.17100
O1543       O  0.56698617  0.01071186  0.48546397    -0.79200
O1544       O  0.98144604  0.06704326  0.44608195    -0.79200
O1545       O  0.56425745  0.07022961  0.36571286    -0.79200
O1546       O  0.96333632  0.48400588  0.00537422    -0.79200
O1547       O  0.54100671  0.09060049  0.40673756    -0.79300
O1548       O  0.51992200  0.53005048  0.00407473    -0.79200
O1549       O  0.93379335  0.01227075  0.45692285    -0.79200
O1550       O  0.57812725  0.04990874  0.43737562    -0.79200
C1551       C  0.58883301  0.04032572  0.46784363     1.10500
C1552       C  0.95010608  0.04787415  0.45865359     1.10400
C1553       C  0.56365701  0.09747139  0.38098231     1.10500
C1554       C  0.99164967  0.50944875  0.02389599     1.10400
O1555       O  0.99746809  0.45420891  0.48037048    -0.79200
O1556       O  0.00155865  0.04286557  0.33688148    -0.79300
O1557       O  0.57482704  0.51322873  0.37006451    -0.79200
O1558       O  0.92771653  0.46367415  0.39205335    -0.79200
O1559       O  0.94024956  0.51978506  0.37876110    -0.79200
O1560       O  0.54052611  0.47471474  0.41561791    -0.79200
O1561       O  0.95638719  0.43484010  0.43553512    -0.79200
O1562       O  0.50973299  0.99583563  0.34126275    -0.79200
Co1563     Co  0.52856058  0.50563813  0.45664815     1.51500
Co1564     Co  0.99260382  0.05322370  0.39468966     1.51700
Co1565     Co  0.53957580  0.01972612  0.39137365     1.51600
Co1566     Co  0.94862423  0.47576441  0.44556998     1.51500
O1567       O  0.49663081  0.01288541  0.42105677    -1.41100
C1568       C  0.97127317  0.42750712  0.46141942     1.10400
C1569       C  0.50245348  0.01503505  0.31942016     1.10500
C1570       C  0.56495353  0.48403695  0.38912012     1.10500
C1571       C  0.91946008  0.48431480  0.37560993     1.10400
O1572       O  0.57150946  0.00837906  0.22329353    -0.79200
O1573       O  0.97996818  0.06467270  0.20005384    -0.79200
O1574       O  0.55668382  0.06692669  0.11016733    -0.79200
O1575       O  0.96927754  0.48616032  0.25861687    -0.79200
O1576       O  0.53658805  0.08811915  0.15479044    -0.79300
O1577       O  0.52552615  0.52727089  0.25186122    -0.79200
O1578       O  0.93377723  0.01027620  0.21539906    -0.79200
O1579       O  0.57688985  0.04662858  0.17634036    -0.79200
C1580       C  0.59101787  0.03705237  0.20302047     1.10500
C1581       C  0.95015695  0.04600859  0.21640853     1.10400
C1582       C  0.55668792  0.09430741  0.12623275     1.10500
C1583       C  0.99937669  0.50849394  0.27606319     1.10400
O1584       O  0.99688520  0.44817861  0.23225909    -0.79200
O1585       O  0.99157798  0.03935041  0.08740103    -0.79300
O1586       O  0.56676645  0.50826119  0.10795271    -0.79200
O1587       O  0.92809451  0.46282734  0.14809232    -0.79200
O1588       O  0.93367497  0.51620357  0.13816464    -0.79200
O1589       O  0.53671767  0.47090456  0.15700984    -0.79200
O1590       O  0.95973208  0.43578746  0.18674576    -0.79200
O1591       O  0.50012889  0.99242123  0.08926637    -0.79200
Co1592     Co  0.53005039  0.50233965  0.20225581     1.51500
Co1593     Co  0.98659710  0.05016900  0.14667718     1.51700
Co1594     Co  0.53442995  0.01643940  0.13547976     1.51600
Co1595     Co  0.95142651  0.47644843  0.19990155     1.51500
O1596       O  0.49577824  0.01131240  0.17191365    -1.41100
C1597       C  0.97028668  0.42402860  0.21322649     1.10400
C1598       C  0.49330535  0.01284466  0.06912914     1.10500
C1599       C  0.55833104  0.47963067  0.12755323     1.10500
C1600       C  0.91461915  0.48059084  0.13747671     1.10400
C1601       C  0.67377751  0.34941142  0.31287059     0.31000
C1602       C  0.68018955  0.35428677  0.39264796     0.31000
C1603       C  0.65608887  0.36789480  0.33457545    -0.05200
C1604       C  0.65915466  0.31217894  0.33341421    -0.06000
C1605       C  0.71254490  0.37404113  0.32937191    -0.05900
C1606       C  0.65969343  0.37001594  0.37493855    -0.05300
C1607       C  0.66344524  0.31466172  0.37367319    -0.06000
C1608       C  0.71569302  0.37545707  0.37043607    -0.05900
C1609       C  0.64576190  0.38982547  0.39007587    -0.31300
N1610       N  0.63219202  0.39906806  0.36033196     0.15200
C1611       C  0.63916838  0.38656816  0.32602211    -0.31300
H1612       H  0.63246557  0.39072620  0.29698682     0.17100
C1613       C  0.65240316  0.27905988  0.38583791    -0.30300
N1614       N  0.64015909  0.25503839  0.35395894     0.13900
C1615       C  0.64419795  0.27499176  0.32173176    -0.30300
C1616       C  0.75146257  0.39446668  0.37942887    -0.30600
N1617       N  0.77012038  0.40680626  0.34567663     0.14400
H1618       H  0.76327759  0.39865297  0.40829432     0.17100
C1619       C  0.74683910  0.39478946  0.31490233    -0.30600
H1620       H  0.75440256  0.39984438  0.28427885     0.17100
H1621       H  0.63687606  0.26323747  0.29191638     0.17100
H1622       H  0.64620381  0.39768565  0.42082839     0.17100
H1623       H  0.65234510  0.27099086  0.41566576     0.17100
C1624       C  0.67024960  0.34946797  0.06405798     0.31000
C1625       C  0.66519184  0.34381430  0.14342727     0.31000
C1626       C  0.64947361  0.36475414  0.08465177    -0.05200
C1627       C  0.65287289  0.30932162  0.07927406    -0.06000
C1628       C  0.70617264  0.36972153  0.08678960    -0.05900
C1629       C  0.64730088  0.36241090  0.12525465    -0.05300
C1630       C  0.64947592  0.30676488  0.11964958    -0.06000
C1631       C  0.70333412  0.36829926  0.12735097    -0.05900
C1632       C  0.63129827  0.38108169  0.13815405    -0.31300
N1633       N  0.62222644  0.39287842  0.10639521     0.15200
C1634       C  0.63359787  0.38354481  0.07351281    -0.31300
H1635       H  0.63133855  0.39079264  0.04391751     0.17100
C1636       C  0.63427214  0.26971093  0.12854455    -0.30300
N1637       N  0.62950881  0.24969975  0.09472985     0.13900
C1638       C  0.64090748  0.27341643  0.06427946    -0.30300
C1639       C  0.73740827  0.38862605  0.14274438    -0.30600
N1640       N  0.76129838  0.39956596  0.11299497     0.14400
H1641       H  0.74413798  0.39456141  0.17374943     0.17100
C1642       C  0.74211719  0.38740355  0.07859117    -0.30600
H1643       H  0.75319680  0.39005282  0.04962432     0.17100
H1644       H  0.64021299  0.26504463  0.03367180     0.17100
H1645       H  0.62731249  0.38669772  0.16837613     0.17100
H1646       H  0.62751873  0.25808533  0.15750141     0.17100
C1647       C  0.66826482  0.34230757  0.26873052    -0.04400
C1648       C  0.68990174  0.33346703  0.24643372    -0.01500
C1649       C  0.68597845  0.32966759  0.20545959     0.03500
C1650       C  0.66268629  0.33767623  0.18722469    -0.04400
C1651       C  0.63309601  0.33076631  0.20940007    -0.01500
C1652       C  0.63563783  0.33238961  0.25067297     0.03500
C1653       C  0.71204925  0.32276919  0.26511255     0.38100
C1654       C  0.59871913  0.31518907  0.19053981     0.38100
C1655       C  0.60340809  0.31741296  0.27346147     0.36500
C1656       C  0.70089479  0.31169250  0.18296295     0.36500
N1657       N  0.57748932  0.30497376  0.29129335    -0.38300
N1658       N  0.71146332  0.29612766  0.16489452    -0.38300
N1659       N  0.57108788  0.30222406  0.17582299    -0.37700
N1660       N  0.72925607  0.31337314  0.27945452    -0.37700
C1661       C  0.67069278  0.35305033  0.01986334    -0.04400
C1662       C  0.69771994  0.38780202  0.50140603    -0.01500
C1663       C  0.70139020  0.38819900  0.46025633     0.03500
C1664       C  0.67770846  0.35545393  0.43725086    -0.04400
C1665       C  0.64469856  0.32913479  0.45497182    -0.01500
C1666       C  0.64181435  0.32863586  0.49595691     0.03500
C1667       C  0.71421979  0.42191558  0.02470321     0.38100
C1668       C  0.61232754  0.30596675  0.43159591     0.38100
C1669       C  0.60608940  0.30351238  0.01478250     0.36500
C1670       C  0.72480523  0.42390398  0.44206351     0.36500
N1671       N  0.57835268  0.28527990  0.02867879    -0.38300
N1672       N  0.74315471  0.45271364  0.42798928    -0.38300
N1673       N  0.58653846  0.28782511  0.41306992    -0.37700
N1674       N  0.72796066  0.44992674  0.04294718    -0.37700
C1675       C  0.57568430  0.13237538  0.10960991    -0.04400
C1676       C  0.61285326  0.15337778  0.10443235    -0.01500
C1677       C  0.63073343  0.19201871  0.09614687     0.03500
C1678       C  0.61150594  0.20944035  0.09272816    -0.04400
C1679       C  0.57427894  0.18772245  0.09427436    -0.01500
C1680       C  0.55632480  0.14936962  0.10257474     0.03500
C1681       C  0.63288046  0.13605280  0.11013446     0.38100
C1682       C  0.55466018  0.20563703  0.08948351     0.38100
C1683       C  0.51782569  0.12774370  0.10491137     0.36500
C1684       C  0.66901454  0.21445376  0.09289009     0.36500
N1685       N  0.48716782  0.11075815  0.10689831    -0.38300
N1686       N  0.69960637  0.23234251  0.09009830    -0.38300
N1687       N  0.53815224  0.21704985  0.57240937    -0.37700
N1688       N  0.64898250  0.12234175  0.11471568    -0.37700
C1689       C  0.87538118  0.45965745  0.13012470    -0.04400
C1690       C  0.86098952  0.46761428  0.09811479    -0.01500
C1691       C  0.82365035  0.44804399  0.09216269     0.03500
C1692       C  0.79991153  0.41918856  0.11781820    -0.04400
C1693       C  0.81498956  0.41083136  0.14938699    -0.01500
C1694       C  0.85200974  0.43180782  0.15628867     0.03500
C1695       C  0.88475604  0.99551509  0.07070728     0.38100
C1696       C  0.79338417  0.38003124  0.17505554     0.38100
C1697       C  0.86570346  0.42565461  0.19195602     0.36500
C1698       C  0.81038727  0.45874828  0.05992877     0.36500
N1699       N  0.87598853  0.42052095  0.22068138    -0.38300
N1700       N  0.80095335  0.46794067  0.03357536    -0.38300
N1701       N  0.77846899  0.35638712  0.19726958    -0.37700
N1702       N  0.90483826  0.01824859  0.04983200    -0.37700
C1703       C  0.60551041  0.41402436  0.10801471    -0.04400
C1704       C  0.56880993  0.39586070  0.11493069    -0.01500
C1705       C  0.55287299  0.41692837  0.11942497     0.03500
C1706       C  0.57372844  0.45658603  0.11741213    -0.04400
C1707       C  0.61044659  0.47450496  0.10884575    -0.01500
C1708       C  0.62612059  0.45321865  0.10448859     0.03500
C1709       C  0.54752337  0.35535522  0.11744138     0.38100
C1710       C  0.63286621  0.51506947  0.10671318     0.38100
C1711       C  0.66398789  0.47167596  0.09849367     0.36500
C1712       C  0.51482523  0.39755981  0.12492983     0.36500
N1713       N  0.69426707  0.48631328  0.09407239    -0.38300
N1714       N  0.48440814  0.38194331  0.12893285    -0.38300
N1715       N  0.65083447  0.04738977  0.10356116    -0.37700
N1716       N  0.53029860  0.32298932  0.11936763    -0.37700
C1717       C  0.58500988  0.13634238  0.36643378    -0.04400
C1718       C  0.56682644  0.15307606  0.35344216    -0.01500
C1719       C  0.58538834  0.19200782  0.34767587     0.03500
C1720       C  0.62220058  0.21471995  0.35512286    -0.04400
C1721       C  0.64082972  0.19783451  0.36544619    -0.01500
C1722       C  0.62237740  0.15854048  0.37039894     0.03500
C1723       C  0.52870174  0.13025177  0.34643008     0.38100
C1724       C  0.67894017  0.22120976  0.37130201     0.38100
C1725       C  0.64171050  0.14129514  0.38037289     0.36500
C1726       C  0.56627878  0.20905823  0.33595836     0.36500
N1727       N  0.65742789  0.12771692  0.38792191    -0.38300
N1728       N  0.55079186  0.22239204  0.32651912    -0.38300
N1729       N  0.70939355  0.24003388  0.37597561    -0.37700
N1730       N  0.99940965  0.11331912  0.34295108    -0.37700
C1731       C  0.80837004  0.42734794  0.34380320    -0.04400
C1732       C  0.82860780  0.46677375  0.34826695    -0.01500
C1733       C  0.86579891  0.48644005  0.35467244     0.03500
C1734       C  0.88305173  0.46642898  0.35700552    -0.04400
C1735       C  0.86296709  0.42733863  0.34707836    -0.01500
C1736       C  0.82575318  0.40788096  0.34192767     0.03500
C1737       C  0.81064609  0.48680269  0.34830607     0.38100
C1738       C  0.88029811  0.40673601  0.34227681     0.38100
C1739       C  0.80490611  0.36730887  0.33751085     0.36500
C1740       C  0.88553447  0.52699686  0.36014776     0.36500
N1741       N  0.78861092  0.33485094  0.33466987    -0.38300
N1742       N  0.90111727  0.55936864  0.36430804    -0.38300
N1743       N  0.89403112  0.39023759  0.33823323    -0.37700
N1744       N  0.79643808  0.50294028  0.34839573    -0.37700
C1745       C  0.58099284  0.46070919  0.38033882    -0.04400
C1746       C  0.57435198  0.43101306  0.40487769    -0.01500
C1747       C  0.58891681  0.40909058  0.39615655     0.03500
C1748       C  0.61381890  0.41874358  0.36556130    -0.04400
C1749       C  0.62210462  0.44941947  0.34226579    -0.01500
C1750       C  0.60501190  0.46926662  0.34847760     0.03500
C1751       C  0.55455391  0.42385987  0.44099819     0.38100
C1752       C  0.64994913  0.46225349  0.31325956     0.38100
C1753       C  0.61366957  0.99912505  0.32237747     0.36500
C1754       C  0.57784992  0.37620643  0.41906140     0.36500
N1755       N  0.62058301  0.02319154  0.30151310    -0.38300
N1756       N  0.56888176  0.35020549  0.43774765    -0.38300
N1757       N  0.67231862  0.47280258  0.29026993    -0.37700
N1758       N  0.53952848  0.41774466  0.47044144    -0.37700
C1759       C  0.89589845  0.10409208  0.24069128    -0.04400
C1760       C  0.93298190  0.12483098  0.23685522    -0.01500
C1761       C  0.95135521  0.10629853  0.23211317     0.03500
C1762       C  0.93256005  0.06620350  0.23152207    -0.04400
C1763       C  0.89565177  0.04612031  0.24044595    -0.01500
C1764       C  0.87749391  0.06497804  0.24378563     0.03500
C1765       C  0.95218534  0.16550311  0.23779038     0.38100
C1766       C  0.87559359  0.00618125  0.24688710     0.38100
C1767       C  0.83934945  0.04397946  0.24896003     0.36500
C1768       C  0.98963617  0.12915698  0.22770324     0.36500
N1769       N  0.80886300  0.02692719  0.25277204    -0.38300
N1770       N  0.02012916  0.14760782  0.22400397    -0.38300
N1771       N  0.85848018  0.47405213  0.25327041    -0.37700
N1772       N  0.96780473  0.19799087  0.23898500    -0.37700
C1773       C  0.90961982  0.30928501  0.24752791    -0.04400
C1774       C  0.94592636  0.33142632  0.25750562    -0.01500
C1775       C  0.96629797  0.36941713  0.24697394     0.03500
C1776       C  0.95062913  0.38397117  0.22326017    -0.04400
C1777       C  0.91453711  0.36039514  0.21182344    -0.01500
C1778       C  0.89362933  0.32516945  0.22798535     0.03500
C1779       C  0.96232049  0.31454535  0.27710267     0.38100
C1780       C  0.89927602  0.36965391  0.18017001     0.38100
C1781       C  0.85539223  0.30438308  0.22333967     0.36500
C1782       C  0.00368148  0.39215030  0.25807434     0.36500
N1783       N  0.82485972  0.28878020  0.22027955    -0.38300
N1784       N  0.03346082  0.41026048  0.26690830    -0.38300
N1785       N  0.88723504  0.37584868  0.15377657    -0.37700
N1786       N  0.97550884  0.30109329  0.29266385    -0.37700
C1787       C  0.70462545  0.10189297  0.22018739    -0.04400
C1788       C  0.68616777  0.12022942  0.21892369    -0.01500
C1789       C  0.64898194  0.09922098  0.21326621     0.03500
C1790       C  0.63004466  0.05956316  0.20986026    -0.04400
C1791       C  0.64883099  0.04129747  0.21151474    -0.01500
C1792       C  0.68608377  0.06259820  0.21579976     0.03500
C1793       C  0.70570943  0.16080506  0.22312550     0.38100
C1794       C  0.63012150  0.00063699  0.20817228     0.38100
C1795       C  0.70578362  0.04441784  0.21476624     0.36500
C1796       C  0.63023735  0.11841613  0.21182589     0.36500
N1797       N  0.72167488  0.03008320  0.21347984    -0.38300
N1798       N  0.61526881  0.13370135  0.21045233    -0.38300
N1799       N  0.61532490  0.96821342  0.20591600    -0.37700
N1800       N  0.72118383  0.19321494  0.22652946    -0.37700
C1801       C  0.89299879  0.10365072  0.47867631    -0.04400
C1802       C  0.93029231  0.12482891  0.47899010    -0.01500
C1803       C  0.94920179  0.10683217  0.47502068     0.03500
C1804       C  0.93067314  0.06691481  0.47025075    -0.04400
C1805       C  0.89275651  0.04586753  0.47189018    -0.01500
C1806       C  0.87437745  0.06438842  0.47547229     0.03500
C1807       C  0.94913436  0.16546635  0.48171820     0.38100
C1808       C  0.87186702  0.00510746  0.46942510     0.38100
C1809       C  0.83633848  0.04541117  0.97607740     0.36500
C1810       C  0.98773468  0.13006194  0.47541217     0.36500
N1811       N  0.80567300  0.02936220  0.97682793    -0.38300
N1812       N  0.51879245  0.14387261  0.48953255    -0.38300
N1813       N  0.85343139  0.47286056  0.46012486    -0.37700
N1814       N  0.96441694  0.19793184  0.48345956    -0.37700
C1815       C  0.91572346  0.30888254  0.48085149    -0.04400
C1816       C  0.91472577  0.33365885  0.50929143    -0.01500
C1817       C  0.93565401  0.37288899  0.50460052     0.03500
C1818       C  0.95592601  0.38767364  0.47034039    -0.04400
C1819       C  0.95657989  0.36316530  0.44172617    -0.01500
C1820       C  0.93867964  0.32441539  0.44830839     0.03500
C1821       C  0.89020857  0.32080241  0.04287696     0.38100
C1822       C  0.97406182  0.37739282  0.40439533     0.38100
C1823       C  0.94430074  0.30079085  0.42147505     0.36500
C1824       C  0.93355647  0.39769473  0.53342462     0.36500
N1825       N  0.94890151  0.28214162  0.39987771    -0.38300
N1826       N  0.93285516  0.41859346  0.05834221    -0.38300
N1827       N  0.48900801  0.38854690  0.37619784    -0.37700
N1828       N  0.87039024  0.30984718  0.06867127    -0.37700
C1829       C  0.62661752  0.06364093  0.48203393    -0.04400
C1830       C  0.64448665  0.04623842  0.49457259    -0.01500
C1831       C  0.68155394  0.06781199  0.50116870     0.03500
C1832       C  0.70108755  0.10668579  0.49575279    -0.04400
C1833       C  0.68483266  0.12493059  0.98509799    -0.01500
C1834       C  0.64765461  0.10345093  0.97834578     0.03500
C1835       C  0.62553553  0.00608858  0.49985183     0.38100
C1836       C  0.70504474  0.16528840  0.98106333     0.38100
C1837       C  0.62949978  0.12242811  0.97031913     0.36500
C1838       C  0.70029363  0.04987631  0.51110752     0.36500
N1839       N  0.61509558  0.13774091  0.96427701    -0.38300
N1840       N  0.71550135  0.03578872  0.51884749    -0.38300
N1841       N  0.72120845  0.19753140  0.97784846    -0.37700
N1842       N  0.61136143  0.97426785  0.50503521    -0.37700
C1843       C  0.82072464  0.16519818  0.40302092    -0.04400
C1844       C  0.81548741  0.19097122  0.38356674    -0.01500
C1845       C  0.81642216  0.19136679  0.34227782     0.03500
C1846       C  0.82246190  0.16589502  0.32127589    -0.04400
C1847       C  0.81188426  0.13215719  0.34011241    -0.01500
C1848       C  0.81125293  0.13184300  0.38140204     0.03500
C1849       C  0.80482576  0.21342267  0.40518549     0.38100
C1850       C  0.79599940  0.09693180  0.31758366     0.39300
C1851       C  0.79594529  0.09635479  0.40079215     0.36500
C1852       C  0.80643288  0.21399105  0.32181663     0.36500
N1853       N  0.78329462  0.06784910  0.41594345    -0.38300
N1854       N  0.79797157  0.23161358  0.30554924    -0.38300
N1855       N  0.78238837  0.06871863  0.29972810    -0.37700
N1856       N  0.79589893  0.23100828  0.42225697    -0.37700
C1857       C  0.84287184  0.18183392  0.15405268    -0.04400
C1858       C  0.87263353  0.18699584  0.13335395    -0.01500
C1859       C  0.87238359  0.18733897  0.09196111     0.03500
C1860       C  0.84219600  0.18218886  0.07221461    -0.04400
C1861       C  0.82246161  0.19394484  0.09351916    -0.01500
C1862       C  0.82250040  0.19346654  0.13464895     0.03500
C1863       C  0.90556089  0.19916048  0.15400238     0.38100
C1864       C  0.80614125  0.21105980  0.07382146     0.38100
C1865       C  0.80416367  0.20810817  0.15624265     0.36500
C1866       C  0.90523848  0.20025058  0.07112603     0.36500
N1867       N  0.78899873  0.21953019  0.17267829    -0.38300
N1868       N  0.93187993  0.21134546  0.05515340    -0.38300
N1869       N  0.79360901  0.22514534  0.05813955    -0.37700
N1870       N  0.93225347  0.20969125  0.16995140    -0.37700
C1871       C  0.82980248  0.17082062  0.94811954     0.31000
C1872       C  0.83522382  0.17395568  0.52707027     0.31000
C1873       C  0.84756938  0.15141778  0.96545651    -0.05200
C1874       C  0.85334357  0.21060126  0.96640400    -0.06000
C1875       C  0.79540788  0.15455494  0.97103622    -0.05900
C1876       C  0.84759000  0.15039925  0.50543572    -0.05300
C1877       C  0.85561099  0.21112241  0.50568494    -0.06000
C1878       C  0.79659610  0.15480373  0.51102527    -0.05900
C1879       C  0.86406668  0.13185149  0.51495971    -0.31300
N1880       N  0.87622080  0.12432467  0.98234669     0.15200
C1881       C  0.86517545  0.13490704  0.95128387    -0.31300
H1882       H  0.86988457  0.13101048  0.92075694     0.17100
C1883       C  0.88101607  0.24785995  0.51589548    -0.30300
N1884       N  0.89143133  0.26846221  0.48293678     0.13900
C1885       C  0.87547600  0.24642124  0.95338631    -0.30300
C1886       C  0.76222329  0.13719707  0.52541805    -0.30600
N1887       N  0.74105680  0.12785979  0.99456798     0.14400
H1888       H  0.75437598  0.13199005  0.55588217     0.17100
C1889       C  0.76015996  0.13750437  0.96111474    -0.30600
H1890       H  0.74902727  0.13184233  0.93161647     0.17100
H1891       H  0.87884635  0.25463691  0.92312287     0.17100
H1892       H  0.86968594  0.12673396  0.54414832     0.17100
H1893       H  0.89185793  0.25844715  0.54526330     0.17100
C1894       C  0.83707190  0.17088636  0.69803707     0.31000
C1895       C  0.83184583  0.16927548  0.77804859     0.31000
C1896       C  0.84987836  0.14792183  0.71820646    -0.05200
C1897       C  0.85830954  0.20877193  0.72041465    -0.06000
C1898       C  0.79937881  0.15221701  0.71459013    -0.05900
C1899       C  0.84818641  0.14806793  0.75936569    -0.05300
C1900       C  0.85637512  0.20862952  0.76104447    -0.06000
C1901       C  0.79690509  0.15257678  0.75508751    -0.05900
C1902       C  0.86382960  0.12963773  0.77237729    -0.31300
N1903       N  0.87290152  0.11658582  0.74055259     0.15200
C1904       C  0.86416470  0.12707340  0.70743758    -0.31300
H1905       H  0.86899198  0.12085598  0.67781050     0.17100
C1906       C  0.87922711  0.24575369  0.77436941    -0.30300
N1907       N  0.89385100  0.26763123  0.74252982     0.13900
C1908       C  0.88164360  0.24496820  0.70975535    -0.30300
C1909       C  0.76129197  0.13289462  0.76428059    -0.30600
N1910       N  0.74232763  0.11988697  0.73019534     0.14400
H1911       H  0.74999436  0.12752039  0.79341544     0.17100
C1912       C  0.76515247  0.13035567  0.69979265    -0.30600
H1913       H  0.75728255  0.12276783  0.66917272     0.17100
H1914       H  0.88832832  0.25460374  0.67978320     0.17100
H1915       H  0.86895675  0.12654584  0.80261676     0.17100
H1916       H  0.88387172  0.25623221  0.80450835     0.17100
O1917       O  0.56801320  0.01098318  0.98546604    -0.79200
O1918       O  0.97984033  0.06640874  0.94433681    -0.79200
O1919       O  0.56443279  0.06976711  0.86601348    -0.79200
O1920       O  0.96348867  0.48404677  0.50510448    -0.79200
O1921       O  0.54194641  0.09087201  0.90741719    -0.79300
O1922       O  0.51914178  0.52994617  0.50331600    -0.79200
O1923       O  0.93265877  0.01162599  0.95691102    -0.79200
O1924       O  0.57887771  0.04947582  0.93683356    -0.79200
C1925       C  0.58991212  0.04023340  0.96722509     1.10500
C1926       C  0.94892672  0.04718621  0.95797310     1.10400
C1927       C  0.56426605  0.09727449  0.88127468     1.10500
C1928       C  0.99179456  0.50945432  0.52365126     1.10400
O1929       O  0.99753193  0.45492643  0.98006805    -0.79200
O1930       O  0.00007734  0.04159979  0.83555439    -0.79300
O1931       O  0.57427009  0.51183415  0.86970808    -0.79200
O1932       O  0.92662996  0.46362393  0.89239378    -0.79200
O1933       O  0.93952919  0.51980622  0.87854041    -0.79200
O1934       O  0.54121927  0.47462248  0.91678412    -0.79200
O1935       O  0.95594676  0.43487518  0.93570225    -0.79200
O1936       O  0.50897237  0.99559875  0.84273044    -0.79200
Co1937     Co  0.52965725  0.50588598  0.95771385     1.51500
Co1938     Co  0.99088513  0.05229679  0.89323675     1.51700
Co1939     Co  0.53958099  0.01936494  0.89175466     1.51600
Co1940     Co  0.94826208  0.47581417  0.94572270     1.51500
O1941       O  0.49726950  0.01334066  0.92179534    -1.41100
C1942       C  0.97120371  0.42804419  0.96162813     1.10400
C1943       C  0.50231779  0.01527296  0.82105336     1.10500
C1944       C  0.56462961  0.48299278  0.88931220     1.10500
C1945       C  0.91842990  0.48436489  0.87593646     1.10400
O1946       O  0.57141478  0.01411002  0.72082995    -0.79200
O1947       O  0.97966703  0.06272463  0.70086243    -0.79200
O1948       O  0.55756290  0.06836081  0.60972735    -0.79200
O1949       O  0.96924231  0.48326065  0.75758806    -0.79200
O1950       O  0.53704145  0.09104636  0.65268052    -0.79300
O1951       O  0.52689747  0.52351151  0.75565488    -0.79200
O1952       O  0.93330022  0.00797837  0.71461313    -0.79200
O1953       O  0.57905063  0.05112699  0.67431100    -0.79200
C1954       C  0.59215957  0.04115404  0.70104679     1.10500
C1955       C  0.94943852  0.04362907  0.71622386     1.10400
C1956       C  0.55737985  0.09609835  0.62459365     1.10500
C1957       C  0.99873055  0.50902207  0.77404025     1.10400
O1958       O  0.00142000  0.45225718  0.72801983    -0.79200
O1959       O  0.99205626  0.03946777  0.58758049    -0.79300
O1960       O  0.56526160  0.50701763  0.61039668    -0.79200
O1961       O  0.92742272  0.46093796  0.64722641    -0.79200
O1962       O  0.93346807  0.51472461  0.63728880    -0.79200
O1963       O  0.53999621  0.47108382  0.66294385    -0.79200
O1964       O  0.96107996  0.43592327  0.68490788    -0.79200
O1965       O  0.50047748  0.99366295  0.59068820    -0.79200
Co1966     Co  0.52334727  0.49574838  0.70563209     1.51500
Co1967     Co  0.98682439  0.04955036  0.64710939     1.51700
Co1968     Co  0.53553200  0.01881962  0.63651216     1.51600
Co1969     Co  0.95035848  0.47369640  0.69926089     1.51500
O1970       O  0.49884022  0.01626669  0.67343015    -1.41100
C1971       C  0.97368267  0.42609012  0.71074199     1.10400
C1972       C  0.49369079  0.01371283  0.56965622     1.10500
C1973       C  0.55884670  0.47941450  0.63087619     1.10500
C1974       C  0.91442627  0.47909684  0.63619353     1.10400
C1975       C  0.67305000  0.34832367  0.81316972     0.31000
C1976       C  0.67806142  0.35285527  0.89317510     0.31000
C1977       C  0.65356932  0.36498646  0.83446267    -0.05200
C1978       C  0.65968294  0.31125532  0.83358037    -0.06000
C1979       C  0.71136041  0.37422945  0.83053906    -0.05900
C1980       C  0.65635080  0.36683313  0.87490896    -0.05300
C1981       C  0.66313399  0.31356728  0.87403524    -0.06000
C1982       C  0.71377763  0.37554308  0.87167728    -0.05900
C1983       C  0.64129194  0.38566147  0.88949115    -0.31300
N1984       N  0.62805145  0.39473895  0.85926546     0.15200
C1985       C  0.63613316  0.38293898  0.82526116    -0.31300
H1986       H  0.63010758  0.38735425  0.79600652     0.17100
C1987       C  0.65293711  0.27818970  0.88612209    -0.30300
N1988       N  0.64217006  0.25451096  0.85399956     0.13900
C1989       C  0.64618027  0.27441009  0.82174719    -0.30300
C1990       C  0.74937365  0.39521167  0.88160275    -0.30600
N1991       N  0.76861515  0.40796485  0.84829783     0.14400
H1992       H  0.76065869  0.39923025  0.91075851     0.17100
C1993       C  0.74589864  0.39562494  0.81694428    -0.30600
H1994       H  0.75407591  0.40065056  0.78650830     0.17100
H1995       H  0.63933460  0.26272649  0.79186004     0.17100
H1996       H  0.64108668  0.39337621  0.92017153     0.17100
H1997       H  0.65215706  0.26993221  0.91599979     0.17100
C1998       C  0.67075200  0.35068055  0.56356113     0.31000
C1999       C  0.66586709  0.34524434  0.64308525     0.31000
C2000       C  0.65036887  0.36637888  0.58416206    -0.05200
C2001       C  0.65292331  0.31054745  0.57891975    -0.06000
C2002       C  0.70662687  0.37060540  0.58619048    -0.05900
C2003       C  0.64817629  0.36404338  0.62483715    -0.05300
C2004       C  0.64970501  0.30808912  0.61936356    -0.06000
C2005       C  0.70395058  0.36939178  0.62677051    -0.05900
C2006       C  0.63188496  0.38239653  0.63763708    -0.31300
N2007       N  0.62302272  0.39431734  0.60579374     0.15200
C2008       C  0.63450448  0.38511450  0.57293992    -0.31300
H2009       H  0.63215183  0.39223935  0.54331583     0.17100
C2010       C  0.63425726  0.27099374  0.62830287    -0.30300
N2011       N  0.62908890  0.25090406  0.59444764     0.13900
C2012       C  0.64052342  0.27456735  0.56395844    -0.30300
C2013       C  0.73810949  0.38958283  0.64193587    -0.30600
N2014       N  0.76172748  0.40014639  0.61197204     0.14400
H2015       H  0.74513084  0.39553502  0.67283737     0.17100
C2016       C  0.74245330  0.38800544  0.57772282    -0.30600
H2017       H  0.75347072  0.39057368  0.54868498     0.17100
H2018       H  0.63987282  0.26615555  0.53341010     0.17100
H2019       H  0.62742727  0.38756665  0.66783008     0.17100
H2020       H  0.62785939  0.25944491  0.65734478     0.17100
C2021       C  0.66814273  0.34176842  0.76879866    -0.04400
C2022       C  0.69085207  0.33472022  0.74625094    -0.01500
C2023       C  0.68714633  0.33153073  0.70518016     0.03500
C2024       C  0.66359216  0.33926409  0.68704663    -0.04400
C2025       C  0.63350633  0.33096807  0.70907503    -0.01500
C2026       C  0.63544681  0.33117372  0.75037368     0.03500
C2027       C  0.71396126  0.32514611  0.76463882     0.38100
C2028       C  0.59931564  0.31522422  0.68975396     0.38100
C2029       C  0.60275169  0.31389931  0.77258235     0.36500
C2030       C  0.70181148  0.31349985  0.68241539     0.36500
N2031       N  0.57652068  0.29962889  0.78999708    -0.38300
N2032       N  0.71202868  0.29787680  0.66384840    -0.38300
N2033       N  0.57181845  0.30187990  0.67459996    -0.37700
N2034       N  0.73209065  0.31679976  0.77871834    -0.37700
C2035       C  0.67164374  0.35435279  0.51931005    -0.04400
C2036       C  0.69598909  0.38678646  0.00180966    -0.01500
C2037       C  0.69859603  0.38743515  0.96054136     0.03500
C2038       C  0.67554187  0.35423441  0.93776953    -0.04400
C2039       C  0.64316480  0.32707075  0.95586385    -0.01500
C2040       C  0.64068933  0.32689150  0.99689173     0.03500
C2041       C  0.71537105  0.42307554  0.52402568     0.38100
C2042       C  0.61093526  0.30231207  0.93287259     0.38100
C2043       C  0.60698866  0.30557472  0.51337498     0.36500
C2044       C  0.72001057  0.42347576  0.94221140     0.36500
N2045       N  0.57900036  0.28761162  0.52674602    -0.38300
N2046       N  0.73671332  0.45252517  0.92809747    -0.38300
N2047       N  0.58512302  0.28269791  0.91486480    -0.37700
N2048       N  0.72853691  0.45120104  0.54200936    -0.37700
C2049       C  0.57668433  0.13354045  0.60708773    -0.04400
C2050       C  0.61406241  0.15540682  0.60561578    -0.01500
C2051       C  0.63176039  0.19429705  0.59897336     0.03500
C2052       C  0.61206129  0.21077990  0.59235367    -0.04400
C2053       C  0.57489132  0.18795201  0.58905949    -0.01500
C2054       C  0.55715770  0.14944584  0.59642130     0.03500
C2055       C  0.63412814  0.13820440  0.61185961     0.38100
C2056       C  0.55478934  0.20450486  0.57984154     0.38100
C2057       C  0.51866060  0.12627870  0.59329752     0.36500
C2058       C  0.67013084  0.21773783  0.60019041     0.36500
N2059       N  0.48800604  0.10806061  0.59050000    -0.38300
N2060       N  0.70083139  0.23635556  0.60101768    -0.38300
N2061       N  0.53881856  0.21975794  0.08581711    -0.37700
N2062       N  0.65013491  0.12434983  0.61619153    -0.37700
C2063       C  0.87543765  0.45843527  0.62831252    -0.04400
C2064       C  0.86125118  0.46800550  0.59744670    -0.01500
C2065       C  0.82396718  0.44866498  0.59148222     0.03500
C2066       C  0.80020535  0.41915170  0.61643964    -0.04400
C2067       C  0.81505686  0.40950425  0.64701084    -0.01500
C2068       C  0.85201725  0.42954864  0.65348337     0.03500
C2069       C  0.88470236  0.00252406  0.57635177     0.38100
C2070       C  0.79329843  0.37866512  0.67252410     0.38100
C2071       C  0.86558029  0.42150772  0.68802264     0.36500
C2072       C  0.81074887  0.46031856  0.56008739     0.36500
N2073       N  0.87583963  0.41496212  0.71581102    -0.38300
N2074       N  0.80147003  0.47034634  0.53435452    -0.38300
N2075       N  0.77883122  0.35521903  0.69501600    -0.37700
N2076       N  0.90433392  0.02838847  0.55840697    -0.37700
C2077       C  0.60598809  0.41507519  0.60732902    -0.04400
C2078       C  0.56945881  0.39663996  0.61537194    -0.01500
C2079       C  0.55341913  0.41741207  0.62080803     0.03500
C2080       C  0.57411063  0.45698523  0.61886374    -0.04400
C2081       C  0.61049551  0.47528326  0.60886934    -0.01500
C2082       C  0.62624202  0.45424099  0.60326266     0.03500
C2083       C  0.54851964  0.35622188  0.61849854     0.38100
C2084       C  0.63261266  0.51595654  0.60740349     0.38100
C2085       C  0.66391829  0.47300044  0.59594344     0.36500
C2086       C  0.51555918  0.39796678  0.62803112     0.36500
N2087       N  0.69408993  0.48800503  0.59050819    -0.38300
N2088       N  0.48534833  0.38242855  0.63360559    -0.38300
N2089       N  0.65111866  0.04867790  0.60828871    -0.37700
N2090       N  0.53148462  0.32391379  0.62100152    -0.37700
C2091       C  0.58565695  0.13589724  0.86615085    -0.04400
C2092       C  0.56763662  0.15337516  0.85516585    -0.01500
C2093       C  0.58657752  0.19233565  0.84988326     0.03500
C2094       C  0.62367742  0.21419907  0.85504741    -0.04400
C2095       C  0.64212803  0.19646413  0.86238648    -0.01500
C2096       C  0.62318039  0.15709767  0.86711384     0.03500
C2097       C  0.52940201  0.13116418  0.84894326     0.38100
C2098       C  0.68049664  0.21902172  0.86548374     0.38100
C2099       C  0.64215661  0.13869429  0.87332695     0.36500
C2100       C  0.56769983  0.21029765  0.84080425     0.36500
N2101       N  0.65745660  0.12406927  0.87777311    -0.38300
N2102       N  0.55235357  0.22434099  0.83354265    -0.38300
N2103       N  0.71116740  0.23719309  0.86793218    -0.37700
N2104       N  0.99801459  0.11289304  0.84149899    -0.37700
C2105       C  0.80685617  0.42807480  0.84706013    -0.04400
C2106       C  0.82746251  0.46755322  0.85030456    -0.01500
C2107       C  0.86480967  0.48701346  0.85546217     0.03500
C2108       C  0.88177549  0.46669371  0.85792932    -0.04400
C2109       C  0.86115655  0.42746906  0.84902227    -0.01500
C2110       C  0.82382707  0.40818511  0.84571240     0.03500
C2111       C  0.80968898  0.48779011  0.85070321     0.38100
C2112       C  0.87823789  0.40683298  0.84232568     0.38100
C2113       C  0.80249115  0.36751570  0.84408208     0.36500
C2114       C  0.88509745  0.52771519  0.85871576     0.36500
N2115       N  0.78553965  0.33502355  0.84376204    -0.38300
N2116       N  0.90100788  0.56021133  0.86084585    -0.38300
N2117       N  0.89190669  0.39048861  0.83636331    -0.37700
N2118       N  0.79539438  0.50384555  0.85122080    -0.37700
C2119       C  0.57961958  0.45879252  0.88004833    -0.04400
C2120       C  0.57222528  0.42860757  0.90425385    -0.01500
C2121       C  0.58499069  0.40525952  0.89437607     0.03500
C2122       C  0.60992099  0.41465725  0.86394105    -0.04400
C2123       C  0.61915222  0.44586675  0.84106868    -0.01500
C2124       C  0.60315637  0.46673018  0.84784557     0.03500
C2125       C  0.55401341  0.42264394  0.94136925     0.38100
C2126       C  0.64687207  0.45820972  0.81199984     0.38100
C2127       C  0.61290770  0.99755080  0.82252922     0.36500
C2128       C  0.57208227  0.37113353  0.91577615     0.36500
N2129       N  0.62154904  0.02287090  0.80287000    -0.38300
N2130       N  0.56163218  0.34396590  0.93295164    -0.38300
N2131       N  0.66915004  0.46835509  0.78895262    -0.37700
N2132       N  0.54028932  0.41748857  0.97157927    -0.37700
C2133       C  0.89268354  0.09879725  0.74132675    -0.04400
C2134       C  0.92963011  0.12045191  0.73702883    -0.01500
C2135       C  0.94867177  0.10298653  0.73022824     0.03500
C2136       C  0.93101082  0.06300831  0.73080087    -0.04400
C2137       C  0.89427525  0.04194391  0.74083434    -0.01500
C2138       C  0.87516405  0.05975605  0.74448419     0.03500
C2139       C  0.94795383  0.16104283  0.73992541     0.38100
C2140       C  0.87538467  0.00200389  0.74742578     0.38100
C2141       C  0.83712383  0.03791484  0.75052472     0.36500
C2142       C  0.98609807  0.12688104  0.72105940     0.36500
N2143       N  0.80672510  0.02034020  0.75510075    -0.38300
N2144       N  0.01575471  0.14621178  0.71307493    -0.38300
N2145       N  0.85870691  0.47015285  0.75281861    -0.37700
N2146       N  0.96267940  0.19341436  0.74310823    -0.37700
C2147       C  0.91252098  0.30805924  0.74112350    -0.04400
C2148       C  0.94701886  0.33196080  0.75705077    -0.01500
C2149       C  0.96721327  0.37077760  0.74823502     0.03500
C2150       C  0.95377283  0.38521500  0.72109517    -0.04400
C2151       C  0.91914997  0.35996532  0.70465081    -0.01500
C2152       C  0.89795035  0.32334841  0.71793407     0.03500
C2153       C  0.96159400  0.31650295  0.78228367     0.38100
C2154       C  0.90508523  0.36948129  0.67185836     0.38100
C2155       C  0.86037214  0.30126623  0.70818234     0.36500
C2156       C  0.00218384  0.39503307  0.76584124     0.36500
N2157       N  0.83033508  0.28472491  0.70086942    -0.38300
N2158       N  0.03009418  0.41432949  0.77998646    -0.38300
N2159       N  0.89353520  0.37585944  0.64511561    -0.37700
N2160       N  0.97317443  0.30421069  0.80267295    -0.37700
C2161       C  0.70436633  0.09947868  0.72626061    -0.04400
C2162       C  0.68701051  0.11903194  0.72630949    -0.01500
C2163       C  0.65032780  0.09982566  0.71825606     0.03500
C2164       C  0.63070426  0.06088428  0.71025973    -0.04400
C2165       C  0.64778811  0.04065366  0.71305690    -0.01500
C2166       C  0.68480315  0.06030326  0.72001194     0.03500
C2167       C  0.70726019  0.15925092  0.73347543     0.38100
C2168       C  0.62795733  0.99993488  0.70862981     0.38100
C2169       C  0.70336577  0.04081174  0.71975124     0.36500
C2170       C  0.63230776  0.11980089  0.71925411     0.36500
N2171       N  0.71866804  0.02580880  0.71923229    -0.38300
N2172       N  0.61714573  0.13492284  0.71986113    -0.38300
N2173       N  0.61308718  0.96751121  0.70568239    -0.37700
N2174       N  0.72315080  0.19145112  0.73909154    -0.37700
C2175       C  0.89442894  0.10490698  0.97989473    -0.04400
C2176       C  0.93169989  0.12499858  0.98161067    -0.01500
C2177       C  0.94949312  0.10583199  0.97845642     0.03500
C2178       C  0.93003401  0.06633329  0.97050436    -0.04400
C2179       C  0.89216689  0.04629067  0.97000753    -0.01500
C2180       C  0.87477733  0.06565012  0.97552665     0.03500
C2181       C  0.95176920  0.16565622  0.98495435     0.38100
C2182       C  0.87044554  0.00591096  0.96282541     0.38100
C2183       C  0.83590447  0.04327105  0.47441112     0.36500
C2184       C  0.98780615  0.12713910  0.98379860     0.36500
N2185       N  0.80520829  0.02666880  0.47329783    -0.38300
N2186       N  0.51811097  0.14715783  0.97926315    -0.38300
N2187       N  0.85325069  0.47379492  0.95900737    -0.37700
N2188       N  0.96819716  0.19815530  0.98696758    -0.37700
C2189       C  0.91699860  0.31042369  0.98300978    -0.04400
C2190       C  0.91522604  0.33515945  0.01074072    -0.01500
C2191       C  0.93618307  0.37429002  0.00579358     0.03500
C2192       C  0.95631407  0.38864909  0.97135230    -0.04400
C2193       C  0.95779666  0.36410573  0.94357884    -0.01500
C2194       C  0.94064412  0.32571108  0.95111048     0.03500
C2195       C  0.89052231  0.31925263  0.54214215     0.38100
C2196       C  0.97544458  0.37785510  0.90625086     0.38100
C2197       C  0.94765798  0.30209048  0.92606000     0.36500
C2198       C  0.93462911  0.39934640  0.03475267     0.36500
N2199       N  0.95334258  0.28328570  0.90609884    -0.38300
N2200       N  0.93124183  0.41686594  0.55662839    -0.38300
N2201       N  0.48945940  0.38869174  0.87577876    -0.37700
N2202       N  0.87141817  0.30818828  0.56857390    -0.37700
C2203       C  0.62810936  0.06378950  0.98061312    -0.04400
C2204       C  0.64606948  0.04664113  0.99371778    -0.01500
C2205       C  0.68318437  0.06838257  0.00060240     0.03500
C2206       C  0.70275843  0.10728736  0.99517468    -0.04400
C2207       C  0.68314030  0.12462140  0.48698530    -0.01500
C2208       C  0.64588560  0.10330747  0.48114480     0.03500
C2209       C  0.62716155  0.00646782  0.99882221     0.38100
C2210       C  0.70334772  0.16498597  0.48317264     0.38100
C2211       C  0.62726855  0.12226235  0.47583868     0.36500
C2212       C  0.70201987  0.05058937  0.01069320     0.36500
N2213       N  0.61235777  0.13739356  0.47206331    -0.38300
N2214       N  0.71744884  0.03674618  0.01845019    -0.38300
N2215       N  0.71949720  0.19723336  0.48001204    -0.37700
N2216       N  0.61286529  0.97456697  0.00362225    -0.37700
C2217       C  0.82342282  0.16713904  0.90391929    -0.04400
C2218       C  0.81926601  0.19335894  0.88385902    -0.01500
C2219       C  0.82060938  0.19345073  0.84258041     0.03500
C2220       C  0.82539904  0.16683642  0.82206405    -0.04400
C2221       C  0.81384008  0.13306907  0.84158777    -0.01500
C2222       C  0.81321017  0.13333661  0.88286488     0.03500
C2223       C  0.80887942  0.21639063  0.90475345     0.38100
C2224       C  0.79730296  0.09733092  0.81985684     0.39300
C2225       C  0.79746441  0.09809056  0.90288823     0.36500
C2226       C  0.81213864  0.21707814  0.82162587     0.36500
N2227       N  0.78446108  0.06981545  0.91857132    -0.38300
N2228       N  0.80499170  0.23560684  0.80496470    -0.38300
N2229       N  0.78341199  0.06871889  0.80271163    -0.37700
N2230       N  0.80029187  0.23456747  0.92119290    -0.37700
C2231       C  0.84002193  0.17658681  0.65364815    -0.04400
C2232       C  0.86975025  0.18200931  0.63241949    -0.01500
C2233       C  0.87006319  0.18422898  0.59113809     0.03500
C2234       C  0.84031817  0.18004846  0.57151989    -0.04400
C2235       C  0.81999548  0.19048938  0.59360952    -0.01500
C2236       C  0.81921544  0.18808410  0.63466343     0.03500
C2237       C  0.90213482  0.19160209  0.65268301     0.38100
C2238       C  0.80362527  0.20807205  0.57497271     0.38100
C2239       C  0.79903776  0.20032891  0.65657507     0.36500
C2240       C  0.90308401  0.19779990  0.57042429     0.36500
N2241       N  0.78197465  0.20929089  0.67320303    -0.38300
N2242       N  0.92981697  0.20936108  0.55450710    -0.38300
N2243       N  0.79077715  0.22234440  0.56037703    -0.37700
N2244       N  0.92847075  0.20001579  0.66821637    -0.37700
C2245       C  0.82756555  0.66978175  0.44733698     0.31000
C2246       C  0.83753933  0.67600386  0.02832194     0.31000
C2247       C  0.84504787  0.64995307  0.46446118    -0.05200
C2248       C  0.85142219  0.70954349  0.46568204    -0.06000
C2249       C  0.79329945  0.65382407  0.47034165    -0.05900
C2250       C  0.85037232  0.65288547  0.00676824    -0.05300
C2251       C  0.85777295  0.71321436  0.00725373    -0.06000
C2252       C  0.79893052  0.65666076  0.01203531    -0.05900
C2253       C  0.86680436  0.63434624  0.01636900    -0.31300
N2254       N  0.87376287  0.62268693  0.48096075     0.15200
C2255       C  0.86263757  0.63343588  0.45008017    -0.31300
H2256       H  0.86745400  0.62985092  0.41950791     0.17100
C2257       C  0.88270555  0.74989492  0.01804293    -0.30300
N2258       N  0.89356694  0.77051419  0.98521004     0.13900
C2259       C  0.87382121  0.74533136  0.45254026    -0.30300
C2260       C  0.76438426  0.63888204  0.02608289    -0.30600
N2261       N  0.73913879  0.62754288  0.49409694     0.14400
H2262       H  0.75636323  0.63370629  0.05650256     0.17100
C2263       C  0.75806053  0.63706280  0.46054701    -0.30600
H2264       H  0.74680347  0.63145620  0.43110102     0.17100
H2265       H  0.87680835  0.75344833  0.42232704     0.17100
H2266       H  0.87213022  0.62897267  0.04556631     0.17100
H2267       H  0.89285394  0.76051841  0.04757918     0.17100
C2268       C  0.83873500  0.67491246  0.19840666     0.31000
C2269       C  0.83015824  0.67000722  0.27786333     0.31000
C2270       C  0.85166738  0.65199580  0.21851949    -0.05200
C2271       C  0.85821240  0.71196955  0.22225653    -0.06000
C2272       C  0.80026636  0.65498813  0.21291568    -0.05900
C2273       C  0.84821232  0.65042117  0.25948066    -0.05300
C2274       C  0.85455562  0.71010218  0.26271012    -0.06000
C2275       C  0.79609219  0.65344134  0.25323102    -0.05900
C2276       C  0.86452858  0.63266491  0.27266721    -0.31300
N2277       N  0.87596030  0.62187113  0.24098675     0.15200
C2278       C  0.86772686  0.63283907  0.20788342    -0.31300
H2279       H  0.87375264  0.62775398  0.17835372     0.17100
C2280       C  0.87626564  0.74667682  0.27785696    -0.30300
N2281       N  0.89196142  0.76981743  0.24720417     0.13900
C2282       C  0.88127580  0.74872630  0.21336469    -0.30300
C2283       C  0.76015380  0.63405365  0.26055966    -0.30600
N2284       N  0.74258855  0.62344962  0.22552317     0.14400
H2285       H  0.74765854  0.62731196  0.28907382     0.17100
C2286       C  0.76662707  0.63514695  0.19622876    -0.30600
H2287       H  0.75998001  0.62943532  0.16517419     0.17100
H2288       H  0.88909917  0.75974096  0.18405935     0.17100
H2289       H  0.86832645  0.62834823  0.30294381     0.17100
H2290       H  0.87970217  0.75592548  0.30840834     0.17100
O2291       O  0.56687572  0.51101593  0.48531410    -0.79200
O2292       O  0.98059463  0.56667201  0.44538036    -0.79200
O2293       O  0.56410410  0.57026555  0.36546045    -0.79200
O2294       O  0.96328828  0.98403954  0.00527789    -0.79200
O2295       O  0.54075582  0.59066915  0.40630459    -0.79300
O2296       O  0.51961829  0.02951944  0.00377865    -0.79200
O2297       O  0.93303346  0.51185864  0.45652051    -0.79200
O2298       O  0.57791654  0.55018422  0.43722999    -0.79200
C2299       C  0.58866446  0.54064684  0.46768351     1.10500
C2300       C  0.94922690  0.54746355  0.45787448     1.10400
C2301       C  0.56351317  0.59752248  0.38067739     1.10500
C2302       C  0.99160173  0.00962643  0.02366713     1.10400
O2303       O  0.99811084  0.95469933  0.48069496    -0.79200
O2304       O  0.00124368  0.54216526  0.33688045    -0.79300
O2305       O  0.57483217  0.01295081  0.37011418    -0.79200
O2306       O  0.92833748  0.96417273  0.39234179    -0.79200
O2307       O  0.94070533  0.02031328  0.37946032    -0.79200
O2308       O  0.54059550  0.97449308  0.41574864    -0.79200
O2309       O  0.95688051  0.93503876  0.43594801    -0.79200
O2310       O  0.50966755  0.49578041  0.34119066    -0.79200
Co2311     Co  0.52869296  0.00544798  0.45683958     1.51500
Co2312     Co  0.99206237  0.55277855  0.39429223     1.51700
Co2313     Co  0.53946113  0.51984987  0.39124296     1.51600
Co2314     Co  0.94917630  0.97605922  0.44584125     1.51500
O2315       O  0.49645029  0.51293428  0.42081337    -1.41100
C2316       C  0.97189400  0.92788401  0.46188692     1.10400
C2317       C  0.50237121  0.51489805  0.31925770     1.10500
C2318       C  0.56499327  0.98378085  0.38921221     1.10500
C2319       C  0.91995515  0.98484112  0.37619242     1.10400
O2320       O  0.57150655  0.50807921  0.22334339    -0.79200
O2321       O  0.98015595  0.56601786  0.19956335    -0.79200
O2322       O  0.55684927  0.56697971  0.11039326    -0.79200
O2323       O  0.96896341  0.98421607  0.25860522    -0.79200
O2324       O  0.53692219  0.58795597  0.15540252    -0.79300
O2325       O  0.52548798  0.02743440  0.25190497    -0.79200
O2326       O  0.93452172  0.51118580  0.21481932    -0.79200
O2327       O  0.57698689  0.54647486  0.17651269    -0.79200
C2328       C  0.59105912  0.53682120  0.20317272     1.10500
C2329       C  0.95051639  0.54682552  0.21628066     1.10400
C2330       C  0.55679785  0.59427625  0.12661538     1.10500
C2331       C  0.99864237  0.00956092  0.27490544     1.10400
O2332       O  0.00036428  0.95251217  0.22911091    -0.79200
O2333       O  0.99186218  0.53978297  0.08724242    -0.79300
O2334       O  0.56664637  0.00839117  0.10780890    -0.79200
O2335       O  0.92671981  0.96176273  0.14873224    -0.79200
O2336       O  0.93331602  0.01564950  0.13801657    -0.79200
O2337       O  0.53674740  0.97109716  0.15699083    -0.79200
O2338       O  0.95949439  0.93593390  0.18649240    -0.79200
O2339       O  0.50031385  0.49258973  0.08942561    -0.79200
Co2340     Co  0.53000394  0.00250157  0.20224940     1.51500
Co2341     Co  0.98701923  0.55118438  0.14634513     1.51700
Co2342     Co  0.53457447  0.51641661  0.13560810     1.51600
Co2343     Co  0.95006217  0.97486840  0.20044647     1.51500
O2344       O  0.49587368  0.51123924  0.17199267    -1.41100
C2345       C  0.97226796  0.92638009  0.21245244     1.10400
C2346       C  0.49356937  0.51313793  0.06941449     1.10500
C2347       C  0.55827009  0.97979823  0.12742766     1.10500
C2348       C  0.91391329  0.98002544  0.13757405     1.10400
C2349       C  0.67429138  0.84964842  0.31284269     0.31000
C2350       C  0.68054186  0.85417170  0.39266138     0.31000
C2351       C  0.65657381  0.86804253  0.33467712    -0.05200
C2352       C  0.65967696  0.81232199  0.33322030    -0.06000
C2353       C  0.71303312  0.87421458  0.32944464    -0.05900
C2354       C  0.66002738  0.86992653  0.37504181    -0.05300
C2355       C  0.66389592  0.81464825  0.37349265    -0.06000
C2356       C  0.71608824  0.87544851  0.37052241    -0.05900
C2357       C  0.64592075  0.88955186  0.39027663    -0.31300
N2358       N  0.63249933  0.89900234  0.36055622     0.15200
C2359       C  0.63969253  0.88677372  0.32620592    -0.31300
H2360       H  0.63313794  0.89113204  0.29718279     0.17100
C2361       C  0.65293094  0.77903533  0.38550438    -0.30300
N2362       N  0.64074333  0.75511989  0.35355134     0.13900
C2363       C  0.64479618  0.77517301  0.32139479    -0.30300
C2364       C  0.75183270  0.89441099  0.37961726    -0.30600
N2365       N  0.77057394  0.90689705  0.34593398     0.14400
H2366       H  0.76357025  0.89851739  0.40851117     0.17100
C2367       C  0.74737039  0.89504222  0.31509684    -0.30600
H2368       H  0.75501634  0.90030321  0.28451075     0.17100
H2369       H  0.63749112  0.76350896  0.29155018     0.17100
H2370       H  0.64616011  0.89716260  0.42106932     0.17100
H2371       H  0.65282862  0.77086716  0.41529993     0.17100
C2372       C  0.66977441  0.84931388  0.06387504     0.31000
C2373       C  0.66491646  0.84390818  0.14327779     0.31000
C2374       C  0.64916396  0.86477490  0.08448083    -0.05200
C2375       C  0.65228197  0.80920002  0.07919754    -0.06000
C2376       C  0.70575669  0.86950566  0.08648213    -0.05900
C2377       C  0.64708784  0.86256723  0.12510132    -0.05300
C2378       C  0.64900313  0.80677221  0.11959779    -0.06000
C2379       C  0.70300143  0.86823915  0.12704557    -0.05900
C2380       C  0.63112765  0.88129494  0.13793737    -0.31300
N2381       N  0.62196291  0.89294523  0.10613105     0.15200
C2382       C  0.63325662  0.88350124  0.07327390    -0.31300
H2383       H  0.63089628  0.89060582  0.04364715     0.17100
C2384       C  0.63361159  0.76971440  0.12858380    -0.30300
N2385       N  0.62859095  0.74956963  0.09480034     0.13900
C2386       C  0.64004507  0.77320897  0.06427853    -0.30300
C2387       C  0.73707941  0.88865609  0.14236187    -0.30600
N2388       N  0.76091386  0.89944011  0.11258426     0.14400
H2389       H  0.74384669  0.89478444  0.17334175     0.17100
C2390       C  0.74169025  0.88715390  0.07821331    -0.30600
H2391       H  0.75272926  0.88972126  0.04923299     0.17100
H2392       H  0.63924275  0.76473913  0.03369196     0.17100
H2393       H  0.62721819  0.88704071  0.16814276     0.17100
H2394       H  0.62694585  0.75817947  0.15759238     0.17100
C2395       C  0.66868920  0.84269048  0.26866205    -0.04400
C2396       C  0.69025271  0.83391053  0.24612499    -0.01500
C2397       C  0.68599304  0.82989738  0.20517666     0.03500
C2398       C  0.66263748  0.83791915  0.18711548    -0.04400
C2399       C  0.63325107  0.83123634  0.20953611    -0.01500
C2400       C  0.63598820  0.83280658  0.25079389     0.03500
C2401       C  0.71275424  0.82355287  0.26454429     0.38100
C2402       C  0.59881641  0.81594296  0.19094278     0.38100
C2403       C  0.60384312  0.81782348  0.27374209     0.36500
C2404       C  0.70072738  0.81180352  0.18253930     0.36500
N2405       N  0.57799744  0.80541982  0.29170326    -0.38300
N2406       N  0.71120784  0.79621350  0.16435567    -0.38300
N2407       N  0.57111528  0.80322424  0.17649645    -0.37700
N2408       N  0.73030959  0.81447395  0.27862588    -0.37700
C2409       C  0.67010718  0.85284521  0.01969313    -0.04400
C2410       C  0.69758652  0.88779020  0.50142337    -0.01500
C2411       C  0.70148627  0.88807180  0.46029843     0.03500
C2412       C  0.67800697  0.85521833  0.43728982    -0.04400
C2413       C  0.64499289  0.82878069  0.45496197    -0.01500
C2414       C  0.64195238  0.82843258  0.49593973     0.03500
C2415       C  0.71375852  0.92170582  0.02451044     0.38100
C2416       C  0.61270463  0.80537372  0.43153390     0.38100
C2417       C  0.60541852  0.80357283  0.01481249     0.36500
C2418       C  0.72487682  0.92376166  0.44206155     0.36500
N2419       N  0.57770539  0.78556897  0.02883354    -0.38300
N2420       N  0.74319309  0.95255475  0.42794126    -0.38300
N2421       N  0.58695823  0.78700655  0.41300009    -0.37700
N2422       N  0.72765979  0.94972476  0.04274622    -0.37700
C2423       C  0.57538421  0.63231662  0.10996334    -0.04400
C2424       C  0.61247706  0.65345837  0.10428991    -0.01500
C2425       C  0.63009954  0.69206010  0.09595253     0.03500
C2426       C  0.61069018  0.70931689  0.09293811    -0.04400
C2427       C  0.57349320  0.68748391  0.09508837    -0.01500
C2428       C  0.55579007  0.64916768  0.10351571     0.03500
C2429       C  0.63272606  0.63634306  0.10973647     0.38100
C2430       C  0.55369568  0.70527061  0.09080838     0.38100
C2431       C  0.51734621  0.62748511  0.10672233     0.36500
C2432       C  0.66834964  0.71467466  0.09243496     0.36500
N2433       N  0.48674108  0.61047686  0.10946564    -0.38300
N2434       N  0.69892366  0.73272298  0.08950020    -0.38300
N2435       N  0.53793700  0.71726591  0.57359780    -0.37700
N2436       N  0.64895672  0.62275474  0.11416583    -0.37700
C2437       C  0.87483349  0.95943374  0.12999287    -0.04400
C2438       C  0.86061980  0.96729737  0.09774737    -0.01500
C2439       C  0.82330070  0.94772770  0.09168274     0.03500
C2440       C  0.79950029  0.91899103  0.11742404    -0.04400
C2441       C  0.81447191  0.91071932  0.14916645    -0.01500
C2442       C  0.85141909  0.93166785  0.15617818     0.03500
C2443       C  0.88502667  0.49597691  0.07116115     0.38100
C2444       C  0.79284795  0.88011295  0.17502423     0.38100
C2445       C  0.86502536  0.92553141  0.19196344     0.36500
C2446       C  0.81010240  0.95833608  0.05930859     0.36500
N2447       N  0.87537792  0.92049193  0.22069572    -0.38300
N2448       N  0.80066925  0.96742730  0.03286750    -0.38300
N2449       N  0.77800647  0.85670367  0.19749327    -0.37700
N2450       N  0.90511536  0.51884390  0.05041096    -0.37700
C2451       C  0.60525359  0.91408612  0.10766442    -0.04400
C2452       C  0.56860475  0.89598682  0.11486843    -0.01500
C2453       C  0.55270865  0.91708917  0.11929211     0.03500
C2454       C  0.57358324  0.95672146  0.11711382    -0.04400
C2455       C  0.61022435  0.97456447  0.10816484    -0.01500
C2456       C  0.62583702  0.95322940  0.10374307     0.03500
C2457       C  0.54732909  0.85552530  0.11780988     0.38100
C2458       C  0.63264320  0.01509521  0.10565425     0.38100
C2459       C  0.66364107  0.97159735  0.09733944     0.36500
C2460       C  0.51466849  0.89778870  0.12483395     0.36500
N2461       N  0.69387215  0.98614431  0.09260993    -0.38300
N2462       N  0.48425690  0.88226394  0.12883394    -0.38300
N2463       N  0.65102957  0.54739619  0.10495103    -0.37700
N2464       N  0.53008273  0.82319654  0.12011975    -0.37700
C2465       C  0.58505259  0.63641675  0.36620440    -0.04400
C2466       C  0.56703391  0.65333750  0.35324508    -0.01500
C2467       C  0.58578511  0.69225347  0.34734215     0.03500
C2468       C  0.62262236  0.71478633  0.35467966    -0.04400
C2469       C  0.64106424  0.69774153  0.36517407    -0.01500
C2470       C  0.62243575  0.65843842  0.37014522     0.03500
C2471       C  0.52886340  0.63072782  0.34651257     0.38100
C2472       C  0.67913897  0.72100003  0.37140922     0.38100
C2473       C  0.64161744  0.64103816  0.38016971     0.36500
C2474       C  0.56682457  0.70950953  0.33577985     0.36500
N2475       N  0.65725697  0.62738129  0.38775411    -0.38300
N2476       N  0.55145136  0.72301779  0.32651006    -0.38300
N2477       N  0.70954995  0.73976034  0.37646463    -0.37700
N2478       N  0.99888217  0.61354113  0.34415482    -0.37700
C2479       C  0.80883959  0.92765710  0.34421409    -0.04400
C2480       C  0.82887399  0.96702513  0.34939604    -0.01500
C2481       C  0.86605221  0.98680624  0.35594368     0.03500
C2482       C  0.88349642  0.96695472  0.35774984    -0.04400
C2483       C  0.86360835  0.92796640  0.34732502    -0.01500
C2484       C  0.82641953  0.90840502  0.34188452     0.03500
C2485       C  0.81068915  0.98683304  0.35001056     0.38100
C2486       C  0.88109930  0.90752750  0.34246958     0.38100
C2487       C  0.80580342  0.86789574  0.33668473     0.36500
C2488       C  0.88555576  0.02728660  0.36212863     0.36500
N2489       N  0.78976029  0.83548059  0.33318587    -0.38300
N2490       N  0.90092349  0.05960019  0.36682300    -0.38300
N2491       N  0.89498258  0.89117748  0.33848944    -0.37700
N2492       N  0.79627319  0.00276074  0.35056264    -0.37700
C2493       C  0.58106960  0.96046172  0.38045693    -0.04400
C2494       C  0.57437396  0.93069010  0.40492356    -0.01500
C2495       C  0.58898277  0.90879804  0.39619252     0.03500
C2496       C  0.61409069  0.91864927  0.36579395    -0.04400
C2497       C  0.62247186  0.94943479  0.34263232    -0.01500
C2498       C  0.60521462  0.96913025  0.34870420     0.03500
C2499       C  0.55449346  0.92344206  0.44098952     0.38100
C2500       C  0.65059131  0.96255172  0.31393986     0.38100
C2501       C  0.61354523  0.49933602  0.32222285     0.36500
C2502       C  0.57771516  0.87570786  0.41881977     0.36500
N2503       N  0.62054247  0.52348814  0.30144838    -0.38300
N2504       N  0.56857530  0.84949883  0.43722085    -0.38300
N2505       N  0.67319694  0.97333448  0.29122554    -0.37700
N2506       N  0.53942177  0.91727860  0.47040509    -0.37700
C2507       C  0.89527948  0.60348016  0.24191145    -0.04400
C2508       C  0.93242907  0.62450044  0.23882118    -0.01500
C2509       C  0.95107282  0.60629342  0.23394739     0.03500
C2510       C  0.93250581  0.56627114  0.23230675    -0.04400
C2511       C  0.89549802  0.54575015  0.24094368    -0.01500
C2512       C  0.87705541  0.56431930  0.24448864     0.03500
C2513       C  0.95140901  0.66513804  0.24058984     0.38100
C2514       C  0.87567063  0.50574866  0.24704830     0.38100
C2515       C  0.83887202  0.54306507  0.24943265     0.36500
C2516       C  0.98943005  0.62935370  0.23053155     0.36500
N2517       N  0.80836515  0.52592198  0.25309940    -0.38300
N2518       N  0.01999788  0.64784432  0.22761393    -0.38300
N2519       N  0.85832779  0.97452316  0.25325121    -0.37700
N2520       N  0.96679358  0.69760330  0.24245028    -0.37700
C2521       C  0.91078810  0.81014539  0.24763612    -0.04400
C2522       C  0.94714919  0.83259464  0.25761769    -0.01500
C2523       C  0.96752743  0.87102821  0.24764363     0.03500
C2524       C  0.95206488  0.88605365  0.22438182    -0.04400
C2525       C  0.91563545  0.86186712  0.21300519    -0.01500
C2526       C  0.89476087  0.82622448  0.22871358     0.03500
C2527       C  0.96351654  0.81554119  0.27688158     0.38100
C2528       C  0.89986498  0.87035940  0.18120237     0.38100
C2529       C  0.85642981  0.80510820  0.22417051     0.36500
C2530       C  0.00485109  0.89367731  0.25841898     0.36500
N2531       N  0.82583906  0.78906768  0.22135186    -0.38300
N2532       N  0.03468758  0.91152484  0.26696480    -0.38300
N2533       N  0.88716445  0.87559500  0.15471264    -0.37700
N2534       N  0.97641820  0.80168776  0.29223392    -0.37700
C2535       C  0.70470145  0.60193394  0.22023421    -0.04400
C2536       C  0.68611202  0.62014207  0.21917284    -0.01500
C2537       C  0.64890614  0.59902530  0.21365978     0.03500
C2538       C  0.63007580  0.55938214  0.21010636    -0.04400
C2539       C  0.64896855  0.54122622  0.21162115    -0.01500
C2540       C  0.68623709  0.56263427  0.21584468     0.03500
C2541       C  0.70554323  0.66070486  0.22345128     0.38100
C2542       C  0.63035058  0.50057444  0.20822472     0.38100
C2543       C  0.70601990  0.54454877  0.21486161     0.36500
C2544       C  0.63000852  0.61807859  0.21261331     0.36500
N2545       N  0.72197374  0.53028282  0.21365592    -0.38300
N2546       N  0.61488539  0.63321824  0.21161320    -0.38300
N2547       N  0.61563539  0.46815896  0.20590899    -0.37700
N2548       N  0.72094943  0.69310746  0.22690847    -0.37700
C2549       C  0.89267527  0.60390887  0.47824534    -0.04400
C2550       C  0.92997504  0.62462809  0.47982121    -0.01500
C2551       C  0.94855895  0.60628099  0.47564457     0.03500
C2552       C  0.92976523  0.56653036  0.46919708    -0.04400
C2553       C  0.89182479  0.54587130  0.46921556    -0.01500
C2554       C  0.87374916  0.56469437  0.47348802     0.03500
C2555       C  0.94927101  0.66520453  0.48421733     0.38100
C2556       C  0.87063736  0.50526183  0.46401470     0.38100
C2557       C  0.83668066  0.54565045  0.97577099     0.36500
C2558       C  0.98708931  0.62895689  0.47764646     0.36500
N2559       N  0.80600386  0.52958346  0.97602222    -0.38300
N2560       N  0.51838997  0.64373880  0.48926280    -0.38300
N2561       N  0.85493830  0.97259480  0.46783636    -0.37700
N2562       N  0.96507206  0.69764604  0.48730762    -0.37700
C2563       C  0.91639926  0.80942446  0.48198492    -0.04400
C2564       C  0.91563998  0.83433493  0.51043076    -0.01500
C2565       C  0.93662098  0.87353935  0.50555659     0.03500
C2566       C  0.95668588  0.88813691  0.47112050    -0.04400
C2567       C  0.95746376  0.86351696  0.44277307    -0.01500
C2568       C  0.93951563  0.82480561  0.44956395     0.03500
C2569       C  0.88930992  0.82081471  0.04191103     0.38100
C2570       C  0.97522452  0.87759432  0.40555212     0.38100
C2571       C  0.94531508  0.80104379  0.42316748     0.36500
C2572       C  0.93490905  0.89850429  0.53449018     0.36500
N2573       N  0.95009501  0.78227183  0.40197736    -0.38300
N2574       N  0.93219815  0.91863406  0.05794795    -0.38300
N2575       N  0.48889084  0.88842855  0.37617977    -0.37700
N2576       N  0.86870827  0.80971707  0.06693647    -0.37700
C2577       C  0.62644966  0.56400093  0.48177439    -0.04400
C2578       C  0.64439601  0.54661948  0.49407800    -0.01500
C2579       C  0.68149086  0.56819622  0.50036614     0.03500
C2580       C  0.70095128  0.60709242  0.49511049    -0.04400
C2581       C  0.68536145  0.62568282  0.98534574    -0.01500
C2582       C  0.64816345  0.60418464  0.97865844     0.03500
C2583       C  0.62548818  0.50648557  0.49944157     0.38100
C2584       C  0.70557493  0.66602340  0.98118465     0.38100
C2585       C  0.62993971  0.62311665  0.97078766     0.36500
C2586       C  0.70034584  0.55021038  0.50955356     0.36500
N2587       N  0.61546935  0.63838982  0.96490601    -0.38300
N2588       N  0.71565682  0.53607196  0.51656831    -0.38300
N2589       N  0.72176437  0.69825431  0.97786691    -0.37700
N2590       N  0.61136065  0.47468762  0.50472400    -0.37700
C2591       C  0.82087973  0.66619360  0.40319426    -0.04400
C2592       C  0.81588357  0.69207516  0.38359755    -0.01500
C2593       C  0.81651619  0.69206620  0.34229662     0.03500
C2594       C  0.82234319  0.66634659  0.32152702    -0.04400
C2595       C  0.81153296  0.63263225  0.34055610    -0.01500
C2596       C  0.81086822  0.63255969  0.38183106     0.03500
C2597       C  0.80565220  0.71496936  0.40506570     0.38100
C2598       C  0.79571484  0.59728416  0.31824979     0.39300
C2599       C  0.79500199  0.59714379  0.40149330     0.36500
C2600       C  0.80633916  0.71442627  0.32160904     0.36500
N2601       N  0.78179015  0.56871616  0.41689917    -0.38300
N2602       N  0.79764309  0.73175774  0.30515896    -0.38300
N2603       N  0.78228684  0.56897588  0.30057812    -0.37700
N2604       N  0.79707829  0.73294123  0.42198301    -0.37700
C2605       C  0.84315261  0.68180231  0.15445239    -0.04400
C2606       C  0.87280188  0.68663340  0.13376889    -0.01500
C2607       C  0.87272404  0.68731095  0.09238911     0.03500
C2608       C  0.84270821  0.68252243  0.07260260    -0.04400
C2609       C  0.82308453  0.69438678  0.09393696    -0.01500
C2610       C  0.82301042  0.69373842  0.13505413     0.03500
C2611       C  0.90550435  0.69797774  0.15446758     0.38100
C2612       C  0.80693028  0.71169789  0.07428680     0.38100
C2613       C  0.80472803  0.70844458  0.15666102     0.36500
C2614       C  0.90564687  0.70029570  0.07167823     0.36500
N2615       N  0.78960927  0.71990968  0.17312363    -0.38300
N2616       N  0.93236553  0.71147747  0.05585146    -0.38300
N2617       N  0.79451019  0.72591569  0.05864193    -0.37700
N2618       N  0.93201278  0.70776714  0.17046070    -0.37700
C2619       C  0.83036318  0.67133603  0.94848659     0.31000
C2620       C  0.83490732  0.67428929  0.52719199     0.31000
C2621       C  0.84790660  0.65169448  0.96579175    -0.05200
C2622       C  0.85412802  0.71104883  0.96678630    -0.06000
C2623       C  0.79598242  0.65527156  0.97141063    -0.05900
C2624       C  0.84758723  0.65104807  0.50542345    -0.05300
C2625       C  0.85530817  0.71165191  0.50615446    -0.06000
C2626       C  0.79636143  0.65515054  0.51092554    -0.05900
C2627       C  0.86411774  0.63248924  0.51479771    -0.31300
N2628       N  0.87649946  0.62452260  0.98262714     0.15200
C2629       C  0.86545686  0.63513388  0.95158405    -0.31300
H2630       H  0.87016665  0.63126891  0.92104486     0.17100
C2631       C  0.88090234  0.74824699  0.51664669    -0.30300
N2632       N  0.89168362  0.76905968  0.48384152     0.13900
C2633       C  0.87648585  0.74680471  0.95375034    -0.30300
C2634       C  0.76191928  0.63744771  0.52510747    -0.30600
N2635       N  0.74161281  0.62864353  0.99491201     0.14400
H2636       H  0.75390927  0.63201465  0.55550912     0.17100
C2637       C  0.76074202  0.63831780  0.96147815    -0.30600
H2638       H  0.74962282  0.63268114  0.93196677     0.17100
H2639       H  0.88006499  0.75503680  0.92347346     0.17100
H2640       H  0.86966290  0.62721348  0.54394588     0.17100
H2641       H  0.89172910  0.75854277  0.54607572     0.17100
C2642       C  0.83568122  0.67015254  0.69819966     0.31000
C2643       C  0.83115290  0.66926433  0.77828623     0.31000
C2644       C  0.84873837  0.64743569  0.71843614    -0.05200
C2645       C  0.85697746  0.70819639  0.72020123    -0.06000
C2646       C  0.79815424  0.65164795  0.71512575    -0.05900
C2647       C  0.84742667  0.64796745  0.75960302    -0.05300
C2648       C  0.85540361  0.70844341  0.76085459    -0.06000
C2649       C  0.79602690  0.65237161  0.75566663    -0.05900
C2650       C  0.86339907  0.62984831  0.77261222    -0.31300
N2651       N  0.87234254  0.61663827  0.74079361     0.15200
C2652       C  0.86314541  0.62668705  0.70768492    -0.31300
H2653       H  0.86776961  0.62028500  0.67804504     0.17100
C2654       C  0.87822628  0.74569129  0.77372814    -0.30300
N2655       N  0.89242592  0.76722865  0.74159606     0.13900
C2656       C  0.88005096  0.74426121  0.70908201    -0.30300
C2657       C  0.76051745  0.63309665  0.76523813    -0.30600
N2658       N  0.74129930  0.61996882  0.73133320     0.14400
H2659       H  0.74946078  0.62804883  0.79447283     0.17100
C2660       C  0.76382617  0.62993085  0.70070482    -0.30600
H2661       H  0.75567022  0.62207516  0.67017632     0.17100
H2662       H  0.88652059  0.75358052  0.67899212     0.17100
H2663       H  0.86881066  0.62706472  0.80284450     0.17100
H2664       H  0.88319449  0.75647373  0.80376711     0.17100
O2665       O  0.56856689  0.51182083  0.98610794    -0.79200
O2666       O  0.98031691  0.56668307  0.94489908    -0.79200
O2667       O  0.56459476  0.56971174  0.86598472    -0.79200
O2668       O  0.96391219  0.98420772  0.50533258    -0.79200
O2669       O  0.54227838  0.59097306  0.90742990    -0.79300
O2670       O  0.51935801  0.02980616  0.50354136    -0.79200
O2671       O  0.93297418  0.51190176  0.95700919    -0.79200
O2672       O  0.57939052  0.54980602  0.93692625    -0.79200
C2673       C  0.59043301  0.54089078  0.96761162     1.10500
C2674       C  0.94932742  0.54746547  0.95835208     1.10400
C2675       C  0.56453999  0.59726530  0.88126067     1.10500
C2676       C  0.99211021  0.00974576  0.52387949     1.10400
O2677       O  0.99762012  0.95515140  0.98002447    -0.79200
O2678       O  0.00063256  0.54220246  0.83592593    -0.79300
O2679       O  0.57395886  0.01164814  0.86959852    -0.79200
O2680       O  0.92621792  0.96308870  0.89251611    -0.79200
O2681       O  0.93890100  0.01907828  0.87828547    -0.79200
O2682       O  0.54032097  0.97404561  0.91610143    -0.79200
O2683       O  0.95589795  0.93478109  0.93577638    -0.79200
O2684       O  0.50914440  0.49557022  0.84284977    -0.79200
Co2685     Co  0.52909134  0.00534499  0.95725740     1.51500
Co2686     Co  0.99143504  0.55273701  0.89371367     1.51700
Co2687     Co  0.53989847  0.51945527  0.89189862     1.51600
Co2688     Co  0.94805305  0.97560968  0.94570954     1.51500
O2689       O  0.49770474  0.51346163  0.92206002    -1.41100
C2690       C  0.97133048  0.92815455  0.96167061     1.10400
C2691       C  0.50224161  0.51508802  0.82118318     1.10500
C2692       C  0.56393077  0.98252389  0.88887016     1.10500
C2693       C  0.91776542  0.98361680  0.87608354     1.10400
O2694       O  0.57073277  0.51358638  0.72090860    -0.79200
O2695       O  0.97905738  0.56277330  0.70028284    -0.79200
O2696       O  0.55726482  0.56816801  0.60981140    -0.79200
O2697       O  0.96912395  0.98266422  0.75737407    -0.79200
O2698       O  0.53661731  0.59054687  0.65291042    -0.79300
O2699       O  0.52728582  0.02381109  0.75574927    -0.79200
O2700       O  0.93294860  0.50794184  0.71428580    -0.79200
O2701       O  0.57847300  0.55074895  0.67448289    -0.79200
C2702       C  0.59148160  0.54077038  0.70132210     1.10500
C2703       C  0.94888820  0.54359378  0.71575476     1.10400
C2704       C  0.55699106  0.59580696  0.62483079     1.10500
C2705       C  0.99854729  0.00846364  0.77387298     1.10400
O2706       O  0.00098673  0.95165477  0.72750518    -0.79200
O2707       O  0.99186674  0.53934481  0.58727002    -0.79300
O2708       O  0.56551190  0.00726704  0.61034538    -0.79200
O2709       O  0.92705774  0.96122994  0.64722772    -0.79200
O2710       O  0.93374253  0.01537759  0.63785249    -0.79200
O2711       O  0.54028055  0.97133808  0.66291164    -0.79200
O2712       O  0.96082982  0.93579752  0.68426305    -0.79200
O2713       O  0.50029489  0.49352969  0.59037456    -0.79200
Co2714     Co  0.52390201  0.99619115  0.70569713     1.51500
Co2715     Co  0.98645950  0.54941282  0.64671828     1.51700
Co2716     Co  0.53515978  0.51850139  0.63641202     1.51600
Co2717     Co  0.95026039  0.97354324  0.69912028     1.51500
O2718       O  0.49831866  0.51571475  0.67321334    -1.41100
C2719       C  0.97328373  0.92569114  0.70997527     1.10400
C2720       C  0.49350239  0.51363370  0.56942759     1.10500
C2721       C  0.55907875  0.97965545  0.63080699     1.10500
C2722       C  0.91427400  0.97977009  0.63673317     1.10400
C2723       C  0.67222197  0.84788518  0.81303312     0.31000
C2724       C  0.67713389  0.85255363  0.89303055     0.31000
C2725       C  0.65228132  0.86404510  0.83420428    -0.05200
C2726       C  0.65929640  0.81095542  0.83350875    -0.06000
C2727       C  0.71046978  0.87424341  0.83043992    -0.05900
C2728       C  0.65501722  0.86599431  0.87465821    -0.05300
C2729       C  0.66265522  0.81332256  0.87397692    -0.06000
C2730       C  0.71281516  0.87557836  0.87157447    -0.05900
C2731       C  0.63956022  0.88447001  0.88908964    -0.31300
N2732       N  0.62623258  0.89329386  0.85872419     0.15200
C2733       C  0.63453893  0.88160622  0.82482379    -0.31300
H2734       H  0.62855745  0.88595272  0.79550780     0.17100
C2735       C  0.65272444  0.77804106  0.88611369    -0.30300
N2736       N  0.64228436  0.75438780  0.85398469     0.13900
C2737       C  0.64620111  0.77420682  0.82170093    -0.30300
C2738       C  0.74837415  0.89509202  0.88158765    -0.30600
N2739       N  0.76770876  0.90791119  0.84836935     0.14400
H2740       H  0.75957432  0.89882732  0.91074237     0.17100
C2741       C  0.74506169  0.89565103  0.81694532    -0.30600
H2742       H  0.75332307  0.90056262  0.78653148     0.17100
H2743       H  0.63947828  0.76250496  0.79182336     0.17100
H2744       H  0.63922462  0.89222000  0.91972201     0.17100
H2745       H  0.65186448  0.76981009  0.91602684     0.17100
C2746       C  0.67066992  0.85069476  0.56363334     0.31000
C2747       C  0.66540783  0.84488961  0.64310616     0.31000
C2748       C  0.65000109  0.86609385  0.58416350    -0.05200
C2749       C  0.65299316  0.81047879  0.57887361    -0.06000
C2750       C  0.70647464  0.87089296  0.58648750    -0.05900
C2751       C  0.64762534  0.86356810  0.62482231    -0.05300
C2752       C  0.64953368  0.80787856  0.61927155    -0.06000
C2753       C  0.70356787  0.86928234  0.62706808    -0.05900
C2754       C  0.63139255  0.88196625  0.63765746    -0.31300
N2755       N  0.62279884  0.89417205  0.60584570     0.15200
C2756       C  0.63434109  0.88504907  0.57298493    -0.31300
H2757       H  0.63226693  0.89247530  0.54341252     0.17100
C2758       C  0.63391533  0.77075800  0.62815481    -0.30300
N2759       N  0.62891436  0.75071888  0.59432325     0.13900
C2760       C  0.64057897  0.77447004  0.56387951    -0.30300
C2761       C  0.73763152  0.88964200  0.64253596    -0.30600
N2762       N  0.76144780  0.90104146  0.61271972     0.14400
H2763       H  0.74451888  0.89512690  0.67349380     0.17100
C2764       C  0.74244439  0.88918105  0.57829035    -0.30600
H2765       H  0.75382280  0.89261754  0.54932170     0.17100
H2766       H  0.63999414  0.76609040  0.53333126     0.17100
H2767       H  0.62687563  0.88704782  0.66786129     0.17100
H2768       H  0.62724061  0.75914311  0.65715543     0.17100
C2769       C  0.66733500  0.84120551  0.76869243    -0.04400
C2770       C  0.69026962  0.83443869  0.74624155    -0.01500
C2771       C  0.68654095  0.83111397  0.70519797     0.03500
C2772       C  0.66294493  0.83874120  0.68700982    -0.04400
C2773       C  0.63270690  0.83014452  0.70888885    -0.01500
C2774       C  0.63455354  0.83025429  0.75018890     0.03500
C2775       C  0.71370039  0.82532997  0.76469417     0.38100
C2776       C  0.59855833  0.81426205  0.68938647     0.38100
C2777       C  0.60178109  0.81254803  0.77226918     0.36500
C2778       C  0.70092276  0.81272147  0.68259313     0.36500
N2779       N  0.57547503  0.79794136  0.78954711    -0.38300
N2780       N  0.71067395  0.79657663  0.66417284    -0.38300
N2781       N  0.57112904  0.80081841  0.67402993    -0.37700
N2782       N  0.73213029  0.81741782  0.77884969    -0.37700
C2783       C  0.67164212  0.85432755  0.51935453    -0.04400
C2784       C  0.69535803  0.88658135  0.00160825    -0.01500
C2785       C  0.69779803  0.88725217  0.96033954     0.03500
C2786       C  0.67468094  0.85404030  0.93760729    -0.04400
C2787       C  0.64239823  0.82681092  0.95578351    -0.01500
C2788       C  0.64000842  0.82672444  0.99681730     0.03500
C2789       C  0.71443676  0.92314490  0.52382269     0.38100
C2790       C  0.61019767  0.80182926  0.93284192     0.38100
C2791       C  0.60707073  0.80541193  0.51325932     0.36500
C2792       C  0.71919275  0.92331795  0.94204484     0.36500
N2793       N  0.57905721  0.78749605  0.52658647    -0.38300
N2794       N  0.73597014  0.95240359  0.92801752    -0.38300
N2795       N  0.58442938  0.78206726  0.91482286    -0.37700
N2796       N  0.72677723  0.95133588  0.54154356    -0.37700
C2797       C  0.57626502  0.63336958  0.60757338    -0.04400
C2798       C  0.61363355  0.65516219  0.60594595    -0.01500
C2799       C  0.63138340  0.69399175  0.59893165     0.03500
C2800       C  0.61175896  0.71056358  0.59229983    -0.04400
C2801       C  0.57454380  0.68785837  0.58958634    -0.01500
C2802       C  0.55675144  0.64939347  0.59723428     0.03500
C2803       C  0.63365316  0.63800446  0.61280635     0.38100
C2804       C  0.55448802  0.70454923  0.58072347     0.38100
C2805       C  0.51820286  0.62643389  0.59491353     0.36500
C2806       C  0.66975982  0.71731229  0.59990982     0.36500
N2807       N  0.48750402  0.60835589  0.59285515    -0.38300
N2808       N  0.70046658  0.73580755  0.60055960    -0.38300
N2809       N  0.53776644  0.71934271  0.08753756    -0.37700
N2810       N  0.64956235  0.62413818  0.61778751    -0.37700
C2811       C  0.87517775  0.95962262  0.62931878    -0.04400
C2812       C  0.86087081  0.97064285  0.59993428    -0.01500
C2813       C  0.82357710  0.95122049  0.59393398     0.03500
C2814       C  0.79991357  0.92038729  0.61745797    -0.04400
C2815       C  0.81477410  0.90971127  0.64694018    -0.01500
C2816       C  0.85172637  0.92977838  0.65356563     0.03500
C2817       C  0.88528622  0.49807852  0.57200737     0.38100
C2818       C  0.79298575  0.87760616  0.67092833     0.38100
C2819       C  0.86516665  0.92086511  0.68753376     0.36500
C2820       C  0.81014411  0.96403403  0.56400060     0.36500
N2821       N  0.87527428  0.91365382  0.71495596    -0.38300
N2822       N  0.80065902  0.97503605  0.53946706    -0.38300
N2823       N  0.77845304  0.85296540  0.69206614    -0.37700
N2824       N  0.90512834  0.52240343  0.55245201    -0.37700
C2825       C  0.60599390  0.91515314  0.60741451    -0.04400
C2826       C  0.56929867  0.89674485  0.61445683    -0.01500
C2827       C  0.55335783  0.91762500  0.61980214     0.03500
C2828       C  0.57431085  0.95723832  0.61875157    -0.04400
C2829       C  0.61087540  0.97554564  0.60966252    -0.01500
C2830       C  0.62656105  0.95442731  0.60428913     0.03500
C2831       C  0.54814186  0.85625488  0.61678437     0.38100
C2832       C  0.63313693  0.01624907  0.60879768     0.38100
C2833       C  0.66442104  0.97317127  0.59824008     0.36500
C2834       C  0.51534238  0.89830203  0.62590580     0.36500
N2835       N  0.69473949  0.98821184  0.59387540    -0.38300
N2836       N  0.48501077  0.88292475  0.63055365    -0.38300
N2837       N  0.65049805  0.54836689  0.60643163    -0.37700
N2838       N  0.53104188  0.82388947  0.61867653    -0.37700
C2839       C  0.58599152  0.63582688  0.86609771    -0.04400
C2840       C  0.56799780  0.65315661  0.85453112    -0.01500
C2841       C  0.58691796  0.69207572  0.84906922     0.03500
C2842       C  0.62393299  0.71409293  0.85500433    -0.04400
C2843       C  0.64239912  0.69651006  0.86304857    -0.01500
C2844       C  0.62349824  0.65714113  0.86768280     0.03500
C2845       C  0.52979121  0.63087584  0.84807743     0.38100
C2846       C  0.68071692  0.71919203  0.86691115     0.38100
C2847       C  0.64248746  0.63884076  0.87444729     0.36500
C2848       C  0.56805591  0.70980975  0.83896495     0.36500
N2849       N  0.65779283  0.62428744  0.87933648    -0.38300
N2850       N  0.55267590  0.72360198  0.83081425    -0.38300
N2851       N  0.71134688  0.73742472  0.86998287    -0.37700
N2852       N  0.99828067  0.61277420  0.84183699    -0.37700
C2853       C  0.80593716  0.92762253  0.84731356    -0.04400
C2854       C  0.82686266  0.96710534  0.84989941    -0.01500
C2855       C  0.86416868  0.98630232  0.85535830     0.03500
C2856       C  0.88086016  0.96574178  0.85856383    -0.04400
C2857       C  0.85982956  0.92630490  0.85073931    -0.01500
C2858       C  0.82252709  0.90736079  0.84724222     0.03500
C2859       C  0.80941184  0.98765865  0.84949487     0.38100
C2860       C  0.87636811  0.90496114  0.84555543     0.38100
C2861       C  0.80075886  0.86669871  0.84673661     0.36500
C2862       C  0.88464133  0.02701380  0.85848254     0.36500
N2863       N  0.78337490  0.83424950  0.84732575    -0.38300
N2864       N  0.90068081  0.05951268  0.86064153    -0.38300
N2865       N  0.88955541  0.88797354  0.84088595    -0.37700
N2866       N  0.79535994  0.00395497  0.84940481    -0.37700
C2867       C  0.57861909  0.95807209  0.87948410    -0.04400
C2868       C  0.57062461  0.92747049  0.90335422    -0.01500
C2869       C  0.58307131  0.90386628  0.89335514     0.03500
C2870       C  0.60819548  0.91330350  0.86316894    -0.04400
C2871       C  0.61791888  0.94479207  0.84054199    -0.01500
C2872       C  0.60241021  0.96610858  0.84752719     0.03500
C2873       C  0.55236194  0.92147043  0.94043487     0.38100
C2874       C  0.64559861  0.95687097  0.81145443     0.38100
C2875       C  0.61274779  0.49753696  0.82224309     0.36500
C2876       C  0.56970625  0.86946364  0.91439999     0.36500
N2877       N  0.62056120  0.52235713  0.80213478    -0.38300
N2878       N  0.55886761  0.84205731  0.93125886    -0.38300
N2879       N  0.66779894  0.96674108  0.78834437    -0.37700
N2880       N  0.53869707  0.91631431  0.97068029    -0.37700
C2881       C  0.89217209  0.59886217  0.74148066    -0.04400
C2882       C  0.92910842  0.62046948  0.73697955    -0.01500
C2883       C  0.94814096  0.60295300  0.73024715     0.03500
C2884       C  0.93042504  0.56294708  0.73051319    -0.04400
C2885       C  0.89370849  0.54193051  0.74062609    -0.01500
C2886       C  0.87468689  0.55983287  0.74475571     0.03500
C2887       C  0.94745708  0.66106759  0.73970731     0.38100
C2888       C  0.87473047  0.50194864  0.74691081     0.38100
C2889       C  0.83677012  0.53810773  0.75162748     0.36500
C2890       C  0.98571344  0.62684536  0.72176414     0.36500
N2891       N  0.80648303  0.52063431  0.75697887    -0.38300
N2892       N  0.01552359  0.64617331  0.71442703    -0.38300
N2893       N  0.85956114  0.97024397  0.75351478    -0.37700
N2894       N  0.96222660  0.69345191  0.74272898    -0.37700
C2895       C  0.91138572  0.80762139  0.73976614    -0.04400
C2896       C  0.94567919  0.83135543  0.75623150    -0.01500
C2897       C  0.96614008  0.87015696  0.74751013     0.03500
C2898       C  0.95318964  0.88475901  0.71996578    -0.04400
C2899       C  0.91881667  0.85966473  0.70285116    -0.01500
C2900       C  0.89730963  0.82300137  0.71589341     0.03500
C2901       C  0.95981446  0.81570771  0.78184956     0.38100
C2902       C  0.90524408  0.86951046  0.66983806     0.38100
C2903       C  0.85992015  0.80101801  0.70518560     0.36500
C2904       C  0.00083399  0.89425481  0.76579553     0.36500
N2905       N  0.83006374  0.78456898  0.69696498    -0.38300
N2906       N  0.02850780  0.91340703  0.78051863    -0.38300
N2907       N  0.89405282  0.87622933  0.64302086    -0.37700
N2908       N  0.97101705  0.80321905  0.80251116    -0.37700
C2909       C  0.70334765  0.59942111  0.72770908    -0.04400
C2910       C  0.68581942  0.61879660  0.72792887    -0.01500
C2911       C  0.64917314  0.59944220  0.71967384     0.03500
C2912       C  0.62989683  0.56063147  0.71093183    -0.04400
C2913       C  0.64712984  0.54055769  0.71357783    -0.01500
C2914       C  0.68403247  0.56030832  0.72110378     0.03500
C2915       C  0.70588744  0.65900023  0.73520291     0.38100
C2916       C  0.62756313  0.49989953  0.70847615     0.38100
C2917       C  0.70278837  0.54102533  0.72100911     0.36500
C2918       C  0.63083895  0.61909130  0.72119723     0.36500
N2919       N  0.71828795  0.52623939  0.72067020    -0.38300
N2920       N  0.61543618  0.63395301  0.72227201    -0.38300
N2921       N  0.61291932  0.46752358  0.70502800    -0.37700
N2922       N  0.72165078  0.69119813  0.74081445    -0.37700
C2923       C  0.89474521  0.60514042  0.98016425    -0.04400
C2924       C  0.93201577  0.62525398  0.98202544    -0.01500
C2925       C  0.94985789  0.60613721  0.97877270     0.03500
C2926       C  0.93043008  0.56661822  0.97092580    -0.04400
C2927       C  0.89255387  0.54653511  0.97054145    -0.01500
C2928       C  0.87512849  0.56589115  0.97572944     0.03500
C2929       C  0.95204560  0.66590207  0.98557611     0.38100
C2930       C  0.87084242  0.50607315  0.96399451     0.38100
C2931       C  0.83529782  0.54392359  0.47203424     0.36500
C2932       C  0.98820110  0.62754190  0.98383452     0.36500
N2933       N  0.80461300  0.52750775  0.47084407    -0.38300
N2934       N  0.51830363  0.64843556  0.97521736    -0.38300
N2935       N  0.85284360  0.97370614  0.95724128    -0.37700
N2936       N  0.96845693  0.69839587  0.98777260    -0.37700
C2937       C  0.91768129  0.81075208  0.98342002    -0.04400
C2938       C  0.91520102  0.83535097  0.01063349    -0.01500
C2939       C  0.93614534  0.87446992  0.00575846     0.03500
C2940       C  0.95663053  0.88886557  0.97155268    -0.04400
C2941       C  0.95854861  0.86439081  0.94407608    -0.01500
C2942       C  0.94169837  0.82609227  0.95187270     0.03500
C2943       C  0.89174203  0.82010717  0.54355716     0.38100
C2944       C  0.97614786  0.87802654  0.90670952     0.38100
C2945       C  0.94930800  0.80259711  0.92743974     0.36500
C2946       C  0.93422775  0.89945038  0.03449814     0.36500
N2947       N  0.95552194  0.78390728  0.90802389    -0.38300
N2948       N  0.93291705  0.91776663  0.55786007    -0.38300
N2949       N  0.48769056  0.88860502  0.87374344    -0.37700
N2950       N  0.87290671  0.80915845  0.57022515    -0.37700
C2951       C  0.62862673  0.56454231  0.98104271    -0.04400
C2952       C  0.64656727  0.54747258  0.99445202    -0.01500
C2953       C  0.68371077  0.56919023  0.00112767     0.03500
C2954       C  0.70330393  0.60806589  0.99549246    -0.04400
C2955       C  0.68296055  0.62499296  0.48639372    -0.01500
C2956       C  0.64568761  0.60365815  0.48077125     0.03500
C2957       C  0.62755749  0.50741944  0.00036812     0.38100
C2958       C  0.70315530  0.66530799  0.48216259     0.38100
C2959       C  0.62703960  0.62258709  0.47549580     0.36500
C2960       C  0.70251684  0.55135588  0.01119242     0.36500
N2961       N  0.61211781  0.63770715  0.47172270    -0.38300
N2962       N  0.71786480  0.53740916  0.01889386    -0.38300
N2963       N  0.71930370  0.69750114  0.47857111    -0.37700
N2964       N  0.61316438  0.47564145  0.00593120    -0.37700
C2965       C  0.82392265  0.66774184  0.90429542    -0.04400
C2966       C  0.81983324  0.69407298  0.88432842    -0.01500
C2967       C  0.82068776  0.69393134  0.84301785     0.03500
C2968       C  0.82510962  0.66711486  0.82238054    -0.04400
C2969       C  0.81362652  0.63341347  0.84198872    -0.01500
C2970       C  0.81335284  0.63382886  0.88326608     0.03500
C2971       C  0.81004948  0.71754569  0.90540534     0.38100
C2972       C  0.79687751  0.59760033  0.82037521     0.39300
C2973       C  0.79756249  0.59861958  0.90336546     0.36500
C2974       C  0.81197644  0.71745486  0.82224262     0.36500
N2975       N  0.78448728  0.57037012  0.91910767    -0.38300
N2976       N  0.80461337  0.73590483  0.80577983    -0.38300
N2977       N  0.78282515  0.56893780  0.80332122    -0.37700
N2978       N  0.80199589  0.73611858  0.92199865    -0.37700
C2979       C  0.83850876  0.67563698  0.65376278    -0.04400
C2980       C  0.86848887  0.68143716  0.63273638    -0.01500
C2981       C  0.86914568  0.68401263  0.59149943     0.03500
C2982       C  0.83957064  0.67994495  0.57168057    -0.04400
C2983       C  0.81900686  0.69011272  0.59368136    -0.01500
C2984       C  0.81771780  0.68713518  0.63468999     0.03500
C2985       C  0.90085258  0.69128145  0.65322539     0.38100
C2986       C  0.80314879  0.70824218  0.57507231     0.38100
C2987       C  0.79727570  0.69911570  0.65649300     0.36500
C2988       C  0.90240090  0.69812884  0.57111972     0.36500
N2989       N  0.78006470  0.70794114  0.67303049    -0.38300
N2990       N  0.92932573  0.71023816  0.55547680    -0.38300
N2991       N  0.79081133  0.72302610  0.56045808    -0.37700
N2992       N  0.92717702  0.69995750  0.66896147    -0.37700
loop_ 
_geom_bond_atom_site_label_1 
_geom_bond_atom_site_label_2 
_geom_bond_distance 
_geom_bond_site_symmetry_2 
_ccdc_geom_bond_type 
C1            C3   1.548       .  S
C1            C5   1.524       .  S
C1            C4   1.535       .  S
C1          C347   1.519       .  S
C2            C6   1.545       .  S
C2            C8   1.553       .  S
C2            C7   1.532       .  S
C2          C364   1.521       .  S
C3           C11   1.381       .  A
C3          C380   1.395       .  A
C4           C15   1.374       .  A
C4          C381   1.380       .  A
C5           C19   1.373       .  A
C5          C382   1.384       .  A
C6            C9   1.383       .  A
C6          C377   1.395   1_554  A
C7           C13   1.375       .  A
C7          C378   1.382   1_554  A
C8           C16   1.391       .  A
C8          C379   1.383   1_554  A
C9           H22   1.082       .  S
C9          N384   1.355   1_554  A
N10          C11   1.356       .  A
N10         C383   1.353       .  A
N10         C305   1.436       .  S
C11          H12   1.082       .  S
C13          H23   1.085       .  S
C13          N14   1.359   1_554  A
N14         C389   1.362       .  A
N14         C693   1.452       .  S
C15          H21   1.080       .  S
C15         N388   1.360       .  A
C16          H18   1.081       .  S
C16         N391   1.361   1_554  A
N17          C19   1.352       .  A
N17         C390   1.364       .  A
N17         C336   1.445       .  S
C19          H20   1.084       .  S
C24          C26   1.547       .  S
C24          C28   1.535       .  S
C24          C27   1.527       .  S
C24         C361   1.529       .  S
C25          C29   1.553       .  S
C25          C31   1.531       .  S
C25          C30   1.546       .  S
C25         C350   1.518       .  S
C26          C34   1.381       .  A
C26          C29   1.400       .  A
C27          C38   1.366       .  A
C27          C30   1.383       .  A
C28          C42   1.379       .  A
C28          C31   1.381       .  A
C29          C32   1.383       .  A
C30          C36   1.394       .  A
C31          C39   1.381       .  A
C32          H45   1.082       .  S
C32          N33   1.356       .  A
N33          C34   1.358       .  A
N33         C263   1.441       .  S
C34          H35   1.082       .  S
C36          H46   1.079       .  S
C36          N37   1.362       .  A
N37          C38   1.353       .  A
N37         C277   1.444       .  S
C38          H44   1.088       .  S
C39          H41   1.082       .  S
C39          N40   1.355       .  A
N40          C42   1.353       .  A
N40         C291   1.435       .  S
C42          H43   1.083       .  S
O47          C55   1.267       .  A
O47        Co815   1.889       .  S
O48          C56   1.261       .  A
O48         Co68   1.964       .  S
O49          C57   1.263       .  A
O49         Co69   2.022       .  S
O50          C58   1.286       .  A
O50        Co444   2.091   1_554  S
O51          C57   1.252       .  A
O51       Co1564   1.962   1_455  S
O52        C1554   1.277   1_455  A
O52        Co441   2.026   1_554  S
O53          C56   1.268       .  A
O53        Co818   2.007   1_545  S
O54          C55   1.308       .  A
O54         Co69   2.144       .  S
C55         C333   1.507       .  S
C56         C308   1.504       .  S
C57         C221   1.485       .  S
C58        O1548   1.277       .  A
C58        C2346   1.543       .  S
O59          C72   1.262       .  A
O59       Co1563   2.009       .  S
O60        C1569   1.285       .  A
O60         Co68   2.087       .  S
O61          C74   1.265       .  A
O61        Co817   1.883       .  S
O62          C75   1.265       .  A
O62         Co70   1.979       .  S
O63          C75   1.270       .  A
O63        Co816   2.021       .  S
O64          C74   1.304       .  A
O64         Co67   2.134       .  S
O65          C72   1.251       .  A
O65         Co70   1.959       .  S
O66          C73   1.283   1_565  A
O66         Co69   2.042   1_565  S
Co67        O795   1.891       .  S
Co67        O426   2.021       .  S
Co67       O1555   2.018   1_455  S
Co67        O819   2.043   1_455  S
Co68       O1547   1.961       .  S
Co68        O811   2.019       .  S
Co68       O1567   2.061       .  S
Co69        O809   1.880       .  S
Co69         O71   2.038   1_455  S
Co70        O424   2.101       .  S
Co70        O801   2.006       .  S
Co70       O2315   2.066       .  S
O71        Co815   2.043   1_655  S
O71       Co1564   2.061       .  S
O71       Co2314   2.059   1_545  S
C72         C322   1.471       .  S
C73        O1556   1.284       .  A
C73        C2331   1.549   1_455  S
C74         C249   1.521       .  S
C75         C238   1.513       .  S
O76          C84   1.267       .  A
O76        Co844   1.874       .  S
O77          C85   1.261       .  A
O77         Co97   1.967       .  S
O78          C86   1.264       .  A
O78         Co98   2.025       .  S
O79          C87   1.288       .  A
O79         Co99   2.098       .  S
O80          C86   1.253       .  A
O80       Co1593   1.961   1_455  S
O81        C1583   1.270   1_455  A
O81         Co96   1.994       .  S
O82          C85   1.273       .  A
O82        Co847   2.034   1_545  S
O83          C84   1.305       .  A
O83         Co98   2.127       .  S
C84         C294   1.484       .  S
C85         C266   1.518       .  S
C86         C179   1.488       .  S
C87        O1577   1.278       .  A
C87        C2317   1.550       .  S
O88         C101   1.263       .  A
O88       Co1592   2.040       .  S
O89        C1598   1.285       .  A
O89         Co97   2.090       .  S
O90         C103   1.272       .  A
O90        Co846   1.869       .  S
O91         C104   1.255       .  A
O91         Co99   1.961       .  S
O92         C104   1.269       .  A
O92        Co845   2.025       .  S
O93         C103   1.309       .  A
O93         Co96   2.118       .  S
O94         C101   1.243       .  A
O94         Co99   1.947       .  S
O95         C102   1.281   1_465  A
O95         Co98   2.035   1_565  S
Co96        O824   1.899       .  S
Co96       O1584   1.951   1_455  S
Co96        O848   2.070   1_455  S
Co97       O1576   1.959       .  S
Co97        O840   2.026       .  S
Co97       O1596   2.063       .  S
Co98        O838   1.886       .  S
Co98        O100   2.041   1_455  S
Co99        O830   2.031       .  S
Co99       O2344   2.035       .  S
O100       Co844   2.055   1_655  S
O100      Co1593   2.073       .  S
O100      Co2343   2.044   1_545  S
C101        C280   1.509       .  S
C102       O1585   1.284       .  A
C102       C2302   1.551       .  S
C103        C210   1.485       .  S
C104        C193   1.494       .  S
C105        C107   1.550       .  S
C105        C109   1.561       .  S
C105        C108   1.533       .  S
C105        C151   1.521       .  S
C106        C110   1.528       .  S
C106        C112   1.542       .  S
C106        C111   1.539       .  S
C106        C168   1.521       .  S
C107        C115   1.393       .  A
C107        C110   1.377       .  A
C108        C119   1.379       .  A
C108        C111   1.379       .  A
C109        C123   1.389       .  A
C109        C112   1.400       .  A
C110        C113   1.373       .  A
C111        C117   1.384       .  A
C112        C120   1.379       .  A
C113        H126   1.084       .  S
C113        N114   1.355       .  A
N114        C115   1.366       .  A
N114        C252   1.456       .  S
C115        H116   1.080       .  S
C117        H127   1.079       .  S
C117        N118   1.358       .  A
N118        C119   1.355       .  A
N118        C224   1.440       .  S
C119        H125   1.086       .  S
C120        H122   1.082       .  S
C120        N121   1.355       .  A
N121        C123   1.360       .  A
N121        C235   1.444       .  S
C123        H124   1.083       .  S
C128        C130   1.543       .  S
C128        C132   1.549       .  S
C128        C131   1.546       .  S
C128        C165   1.515       .  S
C129        C133   1.537       .  S
C129        C135   1.548       .  S
C129        C134   1.531       .  S
C129        C154   1.516       .  S
C130        C138   1.382       .  A
C130        C133   1.388       .  A
C131        C142   1.391       .  A
C131        C134   1.382       .  A
C132        C146   1.389       .  A
C132        C135   1.385       .  A
C133        C136   1.382       .  A
C134        C140   1.375       .  A
C135        C143   1.380       .  A
C136        H149   1.082       .  S
C136        N137   1.357       .  A
N137        C138   1.357       .  A
N137        C207   1.440       .  S
C138        H139   1.082       .  S
C140        H150   1.082       .  S
C140        N141   1.353       .  A
N141        C142   1.360       .  A
N141        C182   1.440       .  S
C142        H148   1.082       .  S
C143        H145   1.080       .  S
C143        N144   1.362       .  A
N144        C146   1.365       .  A
N144        C196   1.460       .  S
C146        H147   1.083       .  S
C151        C152   1.418       .  A
C151        C156   1.423       .  A
C152        C153   1.400       .  A
C152        C157   1.450       .  S
C153        C154   1.411       .  A
C153        C160   1.451       .  S
C154        C155   1.409       .  A
C155        C156   1.407       .  A
C155        C158   1.450       .  S
C156        C159   1.452       .  S
C157        N164   1.157       .  T
C158        N163   1.157       .  T
C159        N161   1.157       .  T
C160        N162   1.157       .  T
C165        C540   1.412       .  A
C165        C544   1.410   1_554  A
C166        C167   1.407       .  A
C166        C539   1.414       .  A
C166        C545   1.452       .  S
C167        C168   1.419       .  A
C167        C174   1.451       .  S
C168        C169   1.425       .  A
C169        C170   1.398       .  A
C169        C172   1.456       .  S
C170        C539   1.412       .  A
C170        C547   1.455       .  S
C171        C540   1.450       .  S
C171        N178   1.157       .  T
C172        N177   1.158       .  T
C173        C544   1.453   1_554  S
C173        N175   1.157       .  T
C174        N176   1.158       .  T
C179        C180   1.411       .  A
C179        C184   1.417       .  A
C180        C181   1.417       .  A
C180        C185   1.449       .  S
C181        C182   1.412       .  A
C181        C188   1.447       .  S
C182        C183   1.405       .  A
C183        C184   1.408       .  A
C183        C186   1.449       .  S
C184        C187   1.452       .  S
C185        N192   1.157       .  T
C186        N565   1.157       .  T
C187        N189   1.158   1_455  T
C188        N190   1.157       .  T
N191        C560   1.157       .  T
C193        C194   1.410       .  A
C193        C198   1.414       .  A
C194        C195   1.419       .  A
C194        C947   1.450       .  S
C195        C196   1.423       .  A
C195        C202   1.445       .  S
C196        C197   1.420       .  A
C197        C198   1.408       .  A
C197        C200   1.446       .  S
C198        C201   1.457       .  S
C199        C942   1.450       .  S
C199        N206   1.157   1_565  T
C200        N205   1.156       .  T
C201        N203   1.158       .  T
C202        N204   1.156       .  T
C207        C208   1.409       .  A
C207        C212   1.407       .  A
C208        C209   1.411       .  A
C208        C213   1.447       .  S
C209        C210   1.413       .  A
C209        C216   1.452       .  S
C210        C211   1.419       .  A
C211        C212   1.411       .  A
C211        C214   1.453       .  S
C212        C215   1.448       .  S
C213        N220   1.157       .  T
C214        N967   1.157       .  T
C215        N217   1.157       .  T
C216        N218   1.158   1_455  T
N219        C962   1.157       .  T
C221        C222   1.415       .  A
C221        C226   1.413       .  A
C222        C223   1.406       .  A
C222        C227   1.453       .  S
C223        C224   1.407       .  A
C223        C230   1.449       .  S
C224        C225   1.411       .  A
C225        C226   1.417       .  A
C225        C228   1.448       .  S
C226        C229   1.449       .  S
C227       N1730   1.157   1_455  T
C228        N233   1.157       .  T
C229        N231   1.158       .  T
C230        N232   1.157       .  T
N234       C1723   1.158       .  T
C235        C236   1.407       .  A
C235        C240   1.405       .  A
C236        C237   1.418       .  A
C236        C241   1.450       .  S
C237        C238   1.427       .  A
C237        C244   1.450       .  S
C238        C239   1.421       .  A
C239        C240   1.413       .  A
C239        C242   1.451       .  S
C240        C243   1.448       .  S
C241        N248   1.157       .  T
C242        N247   1.157       .  T
C243        N245   1.157       .  T
C244        N246   1.158       .  T
C249        C250   1.423       .  A
C249        C254   1.430       .  A
C250        C251   1.415       .  A
C250        C255   1.450       .  S
C251        C252   1.415       .  A
C251        C258   1.452       .  S
C252        C253   1.411       .  A
C253        C254   1.418       .  A
C253        C256   1.450       .  S
C254       C1005   1.451       .  S
C255        N262   1.157       .  T
C256        N261   1.157       .  T
C257       C1002   1.450       .  S
C257        N259   1.157   1_565  T
C258        N260   1.158       .  T
C263        C264   1.402       .  A
C263        C268   1.403       .  A
C264        C265   1.413       .  A
C264        C269   1.450       .  S
C265        C266   1.431       .  A
C265        C272   1.452       .  S
C266        C267   1.429       .  A
C267        C268   1.417       .  A
C267        C270   1.449       .  S
C268        C271   1.450       .  S
C269        N276   1.157       .  T
C270       N1023   1.157   1_545  T
C271        N273   1.157       .  T
C272        N274   1.158       .  T
N275       C1018   1.157       .  T
C277        C278   1.411       .  A
C277        C282   1.401       .  A
C278        C279   1.424       .  A
C278        C283   1.447       .  S
C279        C280   1.424       .  A
C279        C286   1.449       .  S
C280        C281   1.429       .  A
C281        C282   1.398       .  A
C281        C284   1.455       .  S
C282        C285   1.450       .  S
C283        N290   1.157       .  T
C284        N289   1.158       .  T
C285        N287   1.156       .  T
C286        N288   1.158       .  T
C291        C292   1.408       .  A
C291        C296   1.404       .  A
C292        C293   1.411       .  A
C292        C297   1.448       .  S
C293        C294   1.413       .  A
C293        C300   1.450       .  S
C294        C295   1.419       .  A
C295        C296   1.409       .  A
C295        C298   1.452   1_545  S
C296        C299   1.450       .  S
C297        N304   1.157       .  T
C298        N303   1.157       .  T
C299        N301   1.157       .  T
C300        N302   1.157       .  T
C305        C306   1.405       .  A
C305        C310   1.401       .  A
C306        C307   1.412       .  A
C306        C311   1.449       .  S
C307        C308   1.424       .  A
C307        C314   1.452       .  S
C308        C309   1.428       .  A
C309        C310   1.410       .  A
C309        C312   1.452       .  S
C310        C687   1.450       .  S
C311        N318   1.157       .  T
C312       N1065   1.158   1_545  T
C313        C684   1.449       .  S
C313        N315   1.157       .  T
C314       N1812   1.158       .  T
N316       C1810   1.158   1_455  T
N317       C1060   1.158       .  T
C319        C320   1.420       .  A
C319        C324   1.415       .  A
C319        N388   1.447       .  S
C320        C321   1.410       .  A
C320        C699   1.451       .  S
C321        C322   1.410       .  A
C321        C328   1.452       .  S
C322        C323   1.409       .  A
C323        C324   1.404       .  A
C323        C326   1.452       .  S
C324        C327   1.450       .  S
C325        C694   1.451       .  S
C325        N332   1.158       .  T
C326       N1827   1.157       .  T
C327        N329   1.157       .  T
C328        N704   1.157       .  T
N330        C702   1.157       .  T
N331       C1822   1.158       .  T
C333        C334   1.424       .  A
C333        C712   1.417       .  A
C334        C335   1.415       .  A
C334        C339   1.449       .  S
C335        C336   1.404       .  A
C335        C342   1.450       .  S
C336        C711   1.410       .  A
C337        C338   1.415       .  A
C337        C710   1.409       .  A
C337        C340   1.448       .  S
C338        C707   1.415       .  A
C338        C341   1.450       .  S
C339        N346   1.157   1_545  T
C340        N345   1.157       .  T
C341        N343   1.157       .  T
C342        N344   1.157       .  T
C347        C348   1.417       .  A
C347        C352   1.414       .  A
C348        C349   1.404       .  A
C348        C353   1.453       .  S
C349        C350   1.417       .  A
C349        C356   1.453       .  S
C350        C351   1.416       .  A
C351        C352   1.403       .  A
C351        C354   1.452       .  S
C352        C355   1.452       .  S
C353        N360   1.158       .  T
C354        N359   1.157       .  T
C355        N357   1.157       .  T
C356        N358   1.158       .  T
C361        C362   1.418       .  A
C361        C366   1.429       .  A
C362        C363   1.408       .  A
C362        C367   1.449       .  S
C363        C364   1.412       .  A
C363        C370   1.450       .  S
C364        C365   1.410       .  A
C365        C366   1.402       .  A
C365        C368   1.455       .  S
C366        C369   1.453       .  S
C367        N374   1.157       .  T
C368        N373   1.158       .  T
C369        N371   1.157       .  T
C370        N372   1.157       .  T
C375        C377   1.551       .  S
C375        C379   1.522       .  S
C375        C378   1.537       .  S
C375        C721   1.519       .  S
C376        C380   1.541       .  S
C376        C382   1.556       .  S
C376        C381   1.529       .  S
C376        C738   1.518       .  S
C377        C385   1.383       .  A
C378        C389   1.377       .  A
C379        C393   1.373       .  A
C380        C383   1.380       .  A
C381        C387   1.374       .  A
C382        C390   1.393       .  A
C383        H396   1.082       .  S
N384        C385   1.357       .  A
N384        C679   1.441       .  S
C385        H386   1.082       .  S
C387        H397   1.083       .  S
C387        N388   1.357       .  A
C389        H395   1.078       .  S
C390        H392   1.082       .  S
N391        C393   1.351       .  A
N391        C710   1.440       .  S
C393        H394   1.084       .  S
C398        C400   1.548       .  S
C398        C402   1.536       .  S
C398        C401   1.523       .  S
C398        C735   1.523       .  S
C399        C403   1.552       .  S
C399        C405   1.530       .  S
C399        C404   1.540       .  S
C399        C724   1.515       .  S
C400        C408   1.382       .  A
C400        C403   1.399       .  A
C401        C412   1.363       .  A
C401        C404   1.384       .  A
C402        C416   1.381       .  A
C402        C405   1.381       .  A
C403        C406   1.384       .  A
C404        C410   1.388       .  A
C405        C413   1.379       .  A
C406        H419   1.081       .  S
C406        N407   1.357       .  A
N407        C408   1.357       .  A
N407        C637   1.442       .  S
C408        H409   1.082       .  S
C410        H420   1.080       .  S
C410        N411   1.357       .  A
N411        C412   1.351       .  A
N411        C651   1.430       .  S
C412        H418   1.087       .  S
C413        H415   1.082       .  S
C413        N414   1.355       .  A
N414        C416   1.354       .  A
N414        C665   1.435       .  S
C416        H417   1.083       .  S
O421        C429   1.265       .  A
O421      Co1189   1.880       .  S
O422        C430   1.262       .  A
O422       Co442   1.967       .  S
O423        C431   1.262       .  A
O423       Co443   2.025       .  S
O424        C432   1.287       .  A
O425        C431   1.250       .  A
O425      Co1938   1.962   1_455  S
O426       C1928   1.277   1_455  A
O427        C430   1.271       .  A
O427      Co1192   2.019   1_545  S
O428        C429   1.308       .  A
O428       Co443   2.142       .  S
C429        C707   1.498       .  S
C430        C682   1.514       .  S
C431        C595   1.487       .  S
C432       O1922   1.277       .  A
C432       C2720   1.553       .  S
O433        C446   1.265       .  A
O433      Co1937   2.018       .  S
O434       C1943   1.282       .  A
O434       Co442   2.074       .  S
O435        C448   1.265       .  A
O435      Co1191   1.884       .  S
O436        C449   1.263       .  A
O436       Co444   1.973       .  S
O437        C449   1.270       .  A
O437      Co1190   2.020       .  S
O438        C448   1.306       .  A
O438       Co441   2.139       .  S
O439        C446   1.251       .  A
O439       Co444   1.961       .  S
O440        C447   1.283   1_565  A
O440       Co443   2.042   1_565  S
Co441      O1169   1.881       .  S
Co441      O1929   2.010   1_455  S
Co441      O1193   2.044   1_455  S
Co442      O1921   1.963       .  S
Co442      O1185   2.020       .  S
Co442      O1941   2.060       .  S
Co443      O1183   1.884       .  S
Co443       O445   2.045   1_455  S
Co444      O1175   2.015       .  S
Co444      O2689   2.057       .  S
O445      Co1189   2.043   1_655  S
O445      Co1938   2.061       .  S
O445      Co2688   2.066   1_545  S
C446        C696   1.477       .  S
C447       O1930   1.285       .  A
C447       C2705   1.551   1_455  S
C448        C623   1.525       .  S
C449        C612   1.511       .  S
O450        C458   1.269       .  A
O450      Co1218   1.879       .  S
O451        C459   1.264       .  A
O451       Co471   1.972       .  S
O452        C460   1.265       .  A
O452       Co472   2.027       .  S
O453        C461   1.290       .  A
O453       Co473   2.104       .  S
O454        C460   1.252       .  A
O454      Co1967   1.958   1_455  S
O455       C1957   1.278   1_455  A
O455       Co470   2.028       .  S
O456        C459   1.273       .  A
O456      Co1221   2.034   1_545  S
O457        C458   1.302       .  A
O457       Co472   2.114       .  S
C458        C668   1.484       .  S
C459        C640   1.518       .  S
C460        C553   1.487       .  S
C461       O1951   1.269       .  A
C461       C2691   1.534       .  S
O462        C475   1.238       .  A
O462      Co1966   1.952       .  S
O463       C1972   1.283       .  A
O463       Co471   2.087       .  S
O464        C477   1.268       .  A
O464      Co1220   1.889       .  S
O465        C478   1.253       .  A
O465       Co473   1.960       .  S
O466        C478   1.269       .  A
O466      Co1219   2.034       .  S
O467        C477   1.304       .  A
O467       Co470   2.126       .  S
O468        C475   1.252       .  A
O468       Co473   1.983       .  S
O469        C476   1.278   1_465  A
O469       Co472   2.023   1_565  S
Co470      O1198   1.878       .  S
Co470      O1958   2.040       .  S
Co470      O1222   2.051   1_455  S
Co471      O1950   1.956       .  S
Co471      O1214   2.034       .  S
Co471      O1970   2.071       .  S
Co472      O1212   1.889       .  S
Co472       O474   2.037   1_455  S
Co473      O1204   2.034       .  S
Co473      O2718   2.081       .  S
O474      Co1218   2.050   1_655  S
O474      Co1967   2.060       .  S
O474      Co2717   2.035   1_545  S
C475        C654   1.479       .  S
C476       O1959   1.286       .  A
C476       C2676   1.543       .  S
C477        C584   1.499       .  S
C478        C567   1.497       .  S
C479        C481   1.551       .  S
C479        C483   1.561       .  S
C479        C482   1.534       .  S
C479        C525   1.517       .  S
C480        C484   1.530       .  S
C480        C486   1.544       .  S
C480        C485   1.539       .  S
C480        C542   1.520       .  S
C481        C489   1.395       .  A
C481        C484   1.377       .  A
C482        C493   1.382       .  A
C482        C485   1.376       .  A
C483        C497   1.389       .  A
C483        C486   1.400       .  A
C484        C487   1.375       .  A
C485        C491   1.384       .  A
C486        C494   1.379       .  A
C487        H500   1.084       .  S
C487        N488   1.355       .  A
N488        C489   1.367       .  A
N488        C626   1.459       .  S
C489        H490   1.081       .  S
C491        H501   1.080       .  S
C491        N492   1.358       .  A
N492        C493   1.356       .  A
N492        C598   1.443       .  S
C493        H499   1.085       .  S
C494        H496   1.081       .  S
C494        N495   1.356       .  A
N495        C497   1.360       .  A
N495        C609   1.444       .  S
C497        H498   1.084       .  S
C502        C504   1.545       .  S
C502        C506   1.550       .  S
C502        C505   1.544       .  S
C502        C539   1.514       .  S
C503        C507   1.536       .  S
C503        C509   1.548       .  S
C503        C508   1.531       .  S
C503        C528   1.513       .  S
C504        C512   1.384       .  A
C504        C507   1.386       .  A
C505        C516   1.390       .  A
C505        C508   1.381       .  A
C506        C520   1.389       .  A
C506        C509   1.382       .  A
C507        C510   1.383       .  A
C508        C514   1.374       .  A
C509        C517   1.380       .  A
C510        H523   1.082       .  S
C510        N511   1.356       .  A
N511        C512   1.359       .  A
N511        C581   1.444       .  S
C512        H513   1.082       .  S
C514        H524   1.081       .  S
C514        N515   1.353       .  A
N515        C516   1.359       .  A
N515        C556   1.438       .  S
C516        H522   1.083       .  S
C517        H519   1.081       .  S
C517        N518   1.364       .  A
N518        C520   1.367       .  A
N518        C570   1.467       .  S
C520        H521   1.080       .  S
C525        C526   1.419       .  A
C525        C530   1.421       .  A
C526        C527   1.399       .  A
C526        C531   1.450       .  S
C527        C528   1.412       .  A
C527        C534   1.454       .  S
C528        C529   1.410       .  A
C529        C530   1.405       .  A
C529        C532   1.450       .  S
C530        C533   1.452       .  S
C531        N538   1.157       .  T
C532        N537   1.157       .  T
C533        N535   1.158       .  T
C534        N536   1.158       .  T
C540        C541   1.407   1_554  A
C541        C542   1.419       .  A
C541        C548   1.451       .  S
C542        C543   1.428       .  A
C543        C544   1.398       .  A
C543        C546   1.457       .  S
C545        N552   1.157       .  T
C546        N551   1.158       .  T
C547        N549   1.157       .  T
C548        N550   1.158       .  T
C553        C554   1.413       .  A
C553        C558   1.419       .  A
C554        C555   1.417       .  A
C554        C559   1.449       .  S
C555        C556   1.411       .  A
C555        C562   1.447       .  S
C556        C557   1.404       .  A
C557        C558   1.406       .  A
C557        C560   1.450       .  S
C558        C561   1.453       .  S
C559        N566   1.157       .  T
C561        N563   1.158   1_455  T
C562        N564   1.157       .  T
C567        C568   1.407       .  A
C567        C572   1.412       .  A
C568        C569   1.421       .  A
C568       C1321   1.448       .  S
C569        C570   1.427       .  A
C569        C576   1.446       .  S
C570        C571   1.424       .  A
C571        C572   1.412       .  A
C571        C574   1.447       .  S
C572        C575   1.455       .  S
C573       C1316   1.448       .  S
C573        N580   1.156   1_565  T
C574        N579   1.156       .  T
C575        N577   1.158       .  T
C576        N578   1.157       .  T
C581        C582   1.409       .  A
C581        C586   1.405       .  A
C582        C583   1.415       .  A
C582        C587   1.448       .  S
C583        C584   1.416       .  A
C583        C590   1.450       .  S
C584        C585   1.422       .  A
C585        C586   1.414       .  A
C585        C588   1.451       .  S
C586        C589   1.448       .  S
C587        N594   1.157       .  T
C588       N1341   1.157       .  T
C589        N591   1.157       .  T
C590        N592   1.157   1_455  T
N593       C1336   1.157       .  T
C595        C596   1.417       .  A
C595        C600   1.413       .  A
C596        C597   1.408       .  A
C596        C601   1.453       .  S
C597        C598   1.408       .  A
C597        C604   1.449       .  S
C598        C599   1.412       .  A
C599        C600   1.417       .  A
C599        C602   1.448       .  S
C600        C603   1.449       .  S
C601       N2104   1.158   1_455  T
C602        N607   1.157       .  T
C603        N605   1.157       .  T
C604        N606   1.157       .  T
N608       C2097   1.157       .  T
C609        C610   1.407       .  A
C609        C614   1.405       .  A
C610        C611   1.417       .  A
C610        C615   1.449       .  S
C611        C612   1.426       .  A
C611        C618   1.451       .  S
C612        C613   1.422       .  A
C613        C614   1.413       .  A
C613        C616   1.452       .  S
C614        C617   1.448       .  S
C615        N622   1.157       .  T
C616        N621   1.158       .  T
C617        N619   1.157       .  T
C618        N620   1.158       .  T
C623        C624   1.423       .  A
C623        C628   1.430       .  A
C624        C625   1.417       .  A
C624        C629   1.450       .  S
C625        C626   1.417       .  A
C625        C632   1.452       .  S
C626        C627   1.411       .  A
C627        C628   1.420       .  A
C627        C630   1.451       .  S
C628       C1379   1.451       .  S
C629        N636   1.157       .  T
C630        N635   1.157       .  T
C631       C1376   1.451       .  S
C631        N633   1.157   1_565  T
C632        N634   1.157       .  T
C637        C638   1.404       .  A
C637        C642   1.403       .  A
C638        C639   1.414       .  A
C638        C643   1.449       .  S
C639        C640   1.427       .  A
C639        C646   1.451       .  S
C640        C641   1.428       .  A
C641        C642   1.416       .  A
C641        C644   1.447       .  S
C642        C645   1.450       .  S
C643        N650   1.157       .  T
C644       N1397   1.156   1_545  T
C645        N647   1.157       .  T
C646        N648   1.158       .  T
N649       C1392   1.156       .  T
C651        C652   1.406       .  A
C651        C656   1.400       .  A
C652        C653   1.412       .  A
C652        C657   1.448       .  S
C653        C654   1.424       .  A
C653        C660   1.454       .  S
C654        C655   1.414       .  A
C655        C656   1.392       .  A
C655        C658   1.451       .  S
C656        C659   1.447       .  S
C657        N664   1.157       .  T
C658        N663   1.157       .  T
C659        N661   1.156       .  T
C660        N662   1.158       .  T
C665        C666   1.407       .  A
C665        C670   1.404       .  A
C666        C667   1.411       .  A
C666        C671   1.448       .  S
C667        C668   1.414       .  A
C667        C674   1.451       .  S
C668        C669   1.418       .  A
C669        C670   1.409       .  A
C669        C672   1.452       .  S
C670        C673   1.449       .  S
C671        N678   1.157       .  T
C672        N677   1.157   1_545  T
C673        N675   1.157       .  T
C674        N676   1.157       .  T
C679        C680   1.405       .  A
C679        C684   1.402       .  A
C680        C681   1.415       .  A
C680        C685   1.449       .  S
C681        C682   1.427       .  A
C681        C688   1.452       .  S
C682        C683   1.429       .  A
C683        C684   1.413       .  A
C683        C686   1.451       .  S
C685        N692   1.157       .  T
C686       N1439   1.158   1_545  T
C687        N689   1.157       .  T
C688       N2186   1.158       .  T
N690       C2184   1.158   1_455  T
N691       C1434   1.158       .  T
C693        C694   1.421   1_556  A
C693        C698   1.418       .  A
C694        C695   1.412       .  A
C695        C696   1.410   1_554  A
C695        C702   1.452       .  S
C696        C697   1.410       .  A
C697        C698   1.408       .  A
C697        C700   1.452       .  S
C698        C701   1.450       .  S
C699        N706   1.158       .  T
C700       N2201   1.157       .  T
C701        N703   1.158       .  T
N705       C2196   1.157       .  T
C707        C708   1.423       .  A
C708        C709   1.411   1_556  A
C708        C713   1.449       .  S
C709        C710   1.403   1_554  A
C709        C716   1.450       .  S
C711        C712   1.417       .  A
C711        C714   1.448       .  S
C712        C715   1.450       .  S
C713        N720   1.157   1_546  T
C714        N719   1.157       .  T
C715        N717   1.157       .  T
C716        N718   1.157       .  T
C721        C722   1.418       .  A
C721        C726   1.415       .  A
C722        C723   1.404       .  A
C722        C727   1.453       .  S
C723        C724   1.416       .  A
C723        C730   1.453       .  S
C724        C725   1.413       .  A
C725        C726   1.403       .  A
C725        C728   1.451       .  S
C726        C729   1.451       .  S
C727        N734   1.158       .  T
C728        N733   1.157       .  T
C729        N731   1.157       .  T
C730        N732   1.158       .  T
C735        C736   1.414       .  A
C735        C740   1.423       .  A
C736        C737   1.408       .  A
C736        C741   1.450       .  S
C737        C738   1.417       .  A
C737        C744   1.450       .  S
C738        C739   1.411       .  A
C739        C740   1.399       .  A
C739        C742   1.455       .  S
C740        C743   1.451       .  S
C741        N748   1.157       .  T
C742        N747   1.158       .  T
C743        N745   1.156       .  T
C744        N746   1.157       .  T
C749        C751   1.548       .  S
C749        C753   1.524       .  S
C749        C752   1.536       .  S
C749       C1095   1.519       .  S
C750        C754   1.544       .  S
C750        C756   1.554       .  S
C750        C755   1.533       .  S
C750       C1112   1.522       .  S
C751        C759   1.381       .  A
C751       C1128   1.395       .  A
C752        C763   1.375       .  A
C752       C1129   1.380       .  A
C753        C767   1.373       .  A
C753       C1130   1.385       .  A
C754       C1125   1.396   1_554  A
C754        C757   1.382       .  A
C755       C1126   1.381   1_554  A
C755        C761   1.375       .  A
C756       C1127   1.384   1_554  A
C756        C764   1.391       .  A
C757        H770   1.082       .  S
C757       N1132   1.354   1_554  A
N758       C1131   1.354       .  A
N758        C759   1.356       .  A
N758       C1053   1.436       .  S
C759        H760   1.082       .  S
C761        H771   1.085       .  S
C761        N762   1.360   1_554  A
N762       C1137   1.362       .  A
N762       C1441   1.453       .  S
C763        H769   1.080       .  S
C763       N1136   1.361       .  A
C764        H766   1.082       .  S
C764       N1139   1.361   1_554  A
N765       C1138   1.363       .  A
N765        C767   1.352       .  A
N765       C1084   1.444       .  S
C767        H768   1.083       .  S
C772        C774   1.547       .  S
C772        C776   1.536       .  S
C772        C775   1.529       .  S
C772       C1109   1.530       .  S
C773        C777   1.553       .  S
C773        C779   1.531       .  S
C773        C778   1.546       .  S
C773       C1098   1.518       .  S
C774        C782   1.381       .  A
C774        C777   1.401       .  A
C775        C786   1.367       .  A
C775        C778   1.383       .  A
C776        C790   1.380       .  A
C776        C779   1.381       .  A
C777        C780   1.383       .  A
C778        C784   1.395       .  A
C779        C787   1.381       .  A
C780        H793   1.082       .  S
C780        N781   1.356       .  A
N781        C782   1.358       .  A
N781       C1011   1.441       .  S
C782        H783   1.082       .  S
C784        H794   1.079       .  S
C784        N785   1.362       .  A
N785        C786   1.354       .  A
N785       C1025   1.445       .  S
C786        H792   1.088       .  S
C787        H789   1.082       .  S
C787        N788   1.355       .  A
N788        C790   1.353       .  A
N788       C1039   1.435       .  S
C790        H791   1.083       .  S
O795        C803   1.268       .  A
O796        C804   1.261       .  A
O796       Co816   1.964       .  S
O797        C805   1.263       .  A
O797       Co817   2.025       .  S
O798        C806   1.287   1_565  A
O798      Co1192   2.094   1_554  S
O799        C805   1.252       .  A
O799      Co2312   1.962   1_455  S
O800       C2302   1.277   1_455  A
O800      Co1189   2.025   1_554  S
O801        C804   1.268       .  A
O802        C803   1.306       .  A
O802       Co817   2.135       .  S
C803       C1081   1.505       .  S
C804       C1056   1.504       .  S
C805        C969   1.486       .  S
C806       O2296   1.276       .  A
C806       C1598   1.544       .  S
O807        C820   1.262       .  A
O807      Co2311   2.010   1_565  S
O808       C2317   1.285       .  A
O808       Co816   2.085       .  S
O809        C822   1.265   1_545  A
O810        C823   1.266       .  A
O810       Co818   1.980       .  S
O811        C823   1.270   1_545  A
O812        C822   1.304       .  A
O812       Co815   2.136   1_565  S
O813        C820   1.251       .  A
O813       Co818   1.960       .  S
O814        C821   1.279       .  A
O814       Co817   2.026       .  S
Co815      O1174   2.022       .  S
Co815      O2303   2.018   1_445  S
Co816      O2295   1.962       .  S
Co816      O2315   2.061       .  S
Co817       O819   2.040   1_455  S
Co818      O1172   2.101       .  S
Co818      O1567   2.066   1_565  S
O819      Co2312   2.060       .  S
O819      Co1566   2.059       .  S
C820       C1070   1.472       .  S
C821       O2304   1.283       .  A
C821       C1583   1.532   1_455  S
C822        C997   1.522       .  S
C823        C986   1.512       .  S
O824        C832   1.231       .  A
O825        C833   1.261       .  A
O825       Co845   1.968       .  S
O826        C834   1.267       .  A
O826       Co846   2.018       .  S
O827        C835   1.288   1_565  A
O827       Co847   2.099       .  S
O828        C834   1.255       .  A
O828      Co2341   1.956   1_455  S
O829       C2331   1.278   1_455  A
O829       Co844   2.028       .  S
O830        C833   1.273       .  A
O831        C832   1.283       .  A
O831       Co846   2.087       .  S
C832       C1042   1.484       .  S
C833       C1014   1.517       .  S
C834        C927   1.478       .  S
C835       O2325   1.278       .  A
C835       C1569   1.552       .  S
O836        C849   1.264       .  A
O836      Co2340   2.041   1_565  S
O837       C2346   1.285       .  A
O837       Co845   2.091       .  S
O838        C851   1.267   1_545  A
O839        C852   1.255       .  A
O839       Co847   1.960       .  S
O840        C852   1.269   1_545  A
O841        C851   1.305       .  A
O841       Co844   2.129   1_565  S
O842        C849   1.244       .  A
O842       Co847   1.949       .  S
O843        C850   1.282   1_455  A
O843       Co846   2.034       .  S
Co844      O2332   2.035   1_545  S
Co845      O2324   1.957       .  S
Co845      O2344   2.060       .  S
Co846       O848   2.017   1_455  S
Co847      O1596   2.036   1_565  S
O848      Co2341   2.070       .  S
O848      Co1595   2.082       .  S
C849       C1028   1.510       .  S
C850       O2333   1.283       .  A
C850       C1554   1.552       .  S
C851        C958   1.500       .  S
C852        C941   1.493       .  S
C853        C855   1.550       .  S
C853        C857   1.560       .  S
C853        C856   1.533       .  S
C853        C899   1.521       .  S
C854        C858   1.528       .  S
C854        C860   1.543       .  S
C854        C859   1.540       .  S
C854        C916   1.522       .  S
C855        C863   1.394       .  A
C855        C858   1.378       .  A
C856        C867   1.380       .  A
C856        C859   1.379       .  A
C857        C871   1.388       .  A
C857        C860   1.401       .  A
C858        C861   1.373       .  A
C859        C865   1.385       .  A
C860        C868   1.379       .  A
C861        H874   1.084       .  S
C861        N862   1.355       .  A
N862        C863   1.366       .  A
N862       C1000   1.457       .  S
C863        H864   1.080       .  S
C865        H875   1.079       .  S
C865        N866   1.358       .  A
N866        C867   1.355       .  A
N866        C972   1.440       .  S
C867        H873   1.086       .  S
C868        H870   1.082       .  S
C868        N869   1.355       .  A
N869        C871   1.360       .  A
N869        C983   1.443       .  S
C871        H872   1.083       .  S
C876        C878   1.543       .  S
C876        C880   1.548       .  S
C876        C879   1.544       .  S
C876        C913   1.515       .  S
C877        C881   1.538       .  S
C877        C883   1.548       .  S
C877        C882   1.531       .  S
C877        C902   1.517       .  S
C878        C886   1.384       .  A
C878        C881   1.388       .  A
C879        C890   1.389       .  A
C879        C882   1.382       .  A
C880        C894   1.389       .  A
C880        C883   1.384       .  A
C881        C884   1.383       .  A
C882        C888   1.375       .  A
C883        C891   1.380       .  A
C884        H897   1.082       .  S
C884        N885   1.358       .  A
N885        C886   1.358       .  A
N885        C955   1.444       .  S
C886        H887   1.082       .  S
C888        H898   1.082       .  S
C888        N889   1.352       .  A
N889        C890   1.358       .  A
N889        C930   1.437       .  S
C890        H896   1.082       .  S
C891        H893   1.080       .  S
C891        N892   1.362       .  A
N892        C894   1.364       .  A
N892        C944   1.461       .  S
C894        H895   1.082       .  S
C899        C900   1.418       .  A
C899        C904   1.422       .  A
C900        C901   1.400       .  A
C900        C905   1.450       .  S
C901        C902   1.411       .  A
C901        C908   1.451       .  S
C902        C903   1.409       .  A
C903        C904   1.407       .  A
C903        C906   1.450       .  S
C904        C907   1.452       .  S
C905        N912   1.157       .  T
C906        N911   1.157       .  T
C907        N909   1.157       .  T
C908        N910   1.157       .  T
C913       C1288   1.413       .  A
C913       C1292   1.410   1_554  A
C914       C1287   1.413       .  A
C914        C915   1.407       .  A
C914       C1293   1.452       .  S
C915        C916   1.419       .  A
C915        C922   1.451       .  S
C916        C917   1.426       .  A
C917        C918   1.398       .  A
C917        C920   1.456       .  S
C918       C1287   1.411       .  A
C918       C1295   1.455       .  S
C919       C1288   1.451       .  S
C919        N926   1.157       .  T
C920        N925   1.158       .  T
C921       C1292   1.453   1_554  S
C921        N923   1.157       .  T
C922        N924   1.158       .  T
C927        C928   1.409       .  A
C927        C932   1.416       .  A
C928        C929   1.415       .  A
C928        C933   1.449       .  S
C929        C930   1.412       .  A
C929        C936   1.447       .  S
C930        C931   1.404       .  A
C931        C932   1.405       .  A
C931        C934   1.448       .  S
C932        C935   1.453       .  S
C933        N940   1.157       .  T
C934       N1313   1.157       .  T
C935        N937   1.158   1_455  T
C936        N938   1.157       .  T
N939       C1308   1.157       .  T
C941        C942   1.409       .  A
C941        C946   1.413       .  A
C942        C943   1.419       .  A
C943        C944   1.424       .  A
C943        C950   1.446       .  S
C944        C945   1.420       .  A
C945        C946   1.408       .  A
C945        C948   1.446       .  S
C946        C949   1.457       .  S
C947        N954   1.157       .  T
C948        N953   1.156       .  T
C949        N951   1.158       .  T
C950        N952   1.156       .  T
C955        C956   1.409       .  A
C955        C960   1.406       .  A
C956        C957   1.416       .  A
C956        C961   1.448       .  S
C957        C958   1.417       .  A
C957        C964   1.450       .  S
C958        C959   1.423       .  A
C959        C960   1.414       .  A
C959        C962   1.452   1_565  S
C960        C963   1.449       .  S
C961        N968   1.157       .  T
C963        N965   1.157       .  T
C964        N966   1.157   1_455  T
C969        C970   1.416       .  A
C969        C974   1.413       .  A
C970        C971   1.406       .  A
C970        C975   1.453       .  S
C971        C972   1.406       .  A
C971        C978   1.449       .  S
C972        C973   1.411       .  A
C973        C974   1.418       .  A
C973        C976   1.448       .  S
C974        C977   1.449       .  S
C975       N2478   1.157   1_455  T
C976        N981   1.157       .  T
C977        N979   1.158       .  T
C978        N980   1.157       .  T
N982       C2471   1.158       .  T
C983        C984   1.407       .  A
C983        C988   1.405       .  A
C984        C985   1.418       .  A
C984        C989   1.450       .  S
C985        C986   1.426       .  A
C985        C992   1.450   1_565  S
C986        C987   1.420       .  A
C987        C988   1.412       .  A
C987        C990   1.451       .  S
C988        C991   1.448       .  S
C989        N996   1.157   1_565  T
C990        N995   1.157       .  T
C991        N993   1.157       .  T
C992        N994   1.158       .  T
C997        C998   1.423       .  A
C997       C1002   1.430       .  A
C998        C999   1.415       .  A
C998       C1003   1.450       .  S
C999       C1000   1.415       .  A
C999       C1006   1.452       .  S
C1000      C1001   1.411       .  A
C1001      C1002   1.418       .  A
C1001      C1004   1.450       .  S
C1003      N1010   1.157       .  T
C1004      N1009   1.157       .  T
C1005      N1007   1.157       .  T
C1006      N1008   1.157       .  T
C1011      C1012   1.401       .  A
C1011      C1016   1.403       .  A
C1012      C1013   1.412       .  A
C1012      C1017   1.450       .  S
C1013      C1014   1.430       .  A
C1013      C1020   1.452       .  S
C1014      C1015   1.429       .  A
C1015      C1016   1.416       .  A
C1015      C1018   1.449       .  S
C1016      C1019   1.450       .  S
C1017      N1024   1.157       .  T
C1019      N1021   1.157       .  T
C1020      N1022   1.158       .  T
C1025      C1026   1.411       .  A
C1025      C1030   1.401       .  A
C1026      C1027   1.425       .  A
C1026      C1031   1.447       .  S
C1027      C1028   1.424       .  A
C1027      C1034   1.449       .  S
C1028      C1029   1.429       .  A
C1029      C1030   1.398       .  A
C1029      C1032   1.454       .  S
C1030      C1033   1.450       .  S
C1031      N1038   1.157       .  T
C1032      N1037   1.158       .  T
C1033      N1035   1.156       .  T
C1034      N1036   1.158       .  T
C1039      C1040   1.408       .  A
C1039      C1044   1.405       .  A
C1040      C1041   1.407       .  A
C1040      C1045   1.445       .  S
C1041      C1042   1.404       .  A
C1041      C1048   1.449       .  S
C1042      C1043   1.428       .  A
C1043      C1044   1.412       .  A
C1043      C1046   1.454       .  S
C1044      C1047   1.453       .  S
C1045      N1052   1.157       .  T
C1046      N1051   1.158       .  T
C1047      N1049   1.158       .  T
C1048      N1050   1.157       .  T
C1053      C1054   1.405       .  A
C1053      C1058   1.401       .  A
C1054      C1055   1.412       .  A
C1054      C1059   1.449       .  S
C1055      C1056   1.423       .  A
C1055      C1062   1.453       .  S
C1056      C1057   1.428       .  A
C1057      C1058   1.410       .  A
C1057      C1060   1.452       .  S
C1058      C1435   1.450       .  S
C1059      N1066   1.157       .  T
C1061      C1432   1.449       .  S
C1061      N1063   1.157       .  T
C1062      N2560   1.158       .  T
N1064      C2558   1.158   1_455  T
C1067      C1068   1.420       .  A
C1067      C1072   1.415       .  A
C1067      N1136   1.448       .  S
C1068      C1069   1.410       .  A
C1068      C1447   1.451       .  S
C1069      C1070   1.410       .  A
C1069      C1076   1.452       .  S
C1070      C1071   1.409       .  A
C1071      C1072   1.404       .  A
C1071      C1074   1.452       .  S
C1072      C1075   1.450       .  S
C1073      C1442   1.450       .  S
C1073      N1080   1.158       .  T
C1074      N2575   1.157       .  T
C1075      N1077   1.157       .  T
C1076      N1452   1.157       .  T
N1078      C1450   1.157       .  T
N1079      C2570   1.157       .  T
C1081      C1082   1.424       .  A
C1081      C1460   1.417       .  A
C1082      C1083   1.415       .  A
C1082      C1087   1.449       .  S
C1083      C1084   1.404       .  A
C1083      C1090   1.450       .  S
C1084      C1459   1.409       .  A
C1085      C1458   1.409       .  A
C1085      C1086   1.415       .  A
C1085      C1088   1.448       .  S
C1086      C1455   1.415       .  A
C1086      C1089   1.450       .  S
C1087      N1094   1.157       .  T
C1088      N1093   1.157       .  T
C1089      N1091   1.157       .  T
C1090      N1092   1.157       .  T
C1095      C1096   1.416       .  A
C1095      C1100   1.415       .  A
C1096      C1097   1.404       .  A
C1096      C1101   1.453       .  S
C1097      C1098   1.417       .  A
C1097      C1104   1.453       .  S
C1098      C1099   1.417       .  A
C1099      C1100   1.403       .  A
C1099      C1102   1.452       .  S
C1100      C1103   1.452       .  S
C1101      N1108   1.158       .  T
C1102      N1107   1.157       .  T
C1103      N1105   1.157       .  T
C1104      N1106   1.158       .  T
C1109      C1110   1.418       .  A
C1109      C1114   1.429       .  A
C1110      C1111   1.409       .  A
C1110      C1115   1.449       .  S
C1111      C1112   1.413       .  A
C1111      C1118   1.450       .  S
C1112      C1113   1.410       .  A
C1113      C1114   1.402       .  A
C1113      C1116   1.455       .  S
C1114      C1117   1.452       .  S
C1115      N1122   1.157       .  T
C1116      N1121   1.158       .  T
C1117      N1119   1.157       .  T
C1118      N1120   1.157       .  T
C1123      C1125   1.550       .  S
C1123      C1127   1.523       .  S
C1123      C1126   1.537       .  S
C1123      C1469   1.520       .  S
C1124      C1128   1.541       .  S
C1124      C1130   1.556       .  S
C1124      C1129   1.528       .  S
C1124      C1486   1.518       .  S
C1125      C1133   1.383       .  A
C1126      C1137   1.377       .  A
C1127      C1141   1.373       .  A
C1128      C1131   1.380       .  A
C1129      C1135   1.374       .  A
C1130      C1138   1.393       .  A
C1131      H1144   1.082       .  S
N1132      C1133   1.356       .  A
N1132      C1427   1.439       .  S
C1133      H1134   1.082       .  S
C1135      H1145   1.083       .  S
C1135      N1136   1.357       .  A
C1137      H1143   1.078       .  S
C1138      H1140   1.082       .  S
N1139      C1141   1.352       .  A
N1139      C1458   1.441       .  S
C1141      H1142   1.084       .  S
C1146      C1148   1.547       .  S
C1146      C1150   1.536       .  S
C1146      C1149   1.523       .  S
C1146      C1483   1.523       .  S
C1147      C1151   1.552       .  S
C1147      C1153   1.530       .  S
C1147      C1152   1.542       .  S
C1147      C1472   1.517       .  S
C1148      C1156   1.381       .  A
C1148      C1151   1.399       .  A
C1149      C1160   1.362       .  A
C1149      C1152   1.385       .  A
C1150      C1164   1.381       .  A
C1150      C1153   1.381       .  A
C1151      C1154   1.384       .  A
C1152      C1158   1.389       .  A
C1153      C1161   1.379       .  A
C1154      H1167   1.081       .  S
C1154      N1155   1.357       .  A
N1155      C1156   1.357       .  A
N1155      C1385   1.442       .  S
C1156      H1157   1.082       .  S
C1158      H1168   1.080       .  S
C1158      N1159   1.358       .  A
N1159      C1160   1.351       .  A
N1159      C1399   1.431       .  S
C1160      H1166   1.087       .  S
C1161      H1163   1.081       .  S
C1161      N1162   1.355       .  A
N1162      C1164   1.354       .  A
N1162      C1413   1.435       .  S
C1164      H1165   1.083       .  S
O1169      C1177   1.265       .  A
O1170      C1178   1.262       .  A
O1170     Co1190   1.967       .  S
O1171      C1179   1.263       .  A
O1171     Co1191   2.026       .  S
O1172      C1180   1.287   1_565  A
O1173      C1179   1.250       .  A
O1173     Co2686   1.961   1_455  S
O1174      C2676   1.277   1_455  A
O1175      C1178   1.270       .  A
O1176      C1177   1.308       .  A
O1176     Co1191   2.143       .  S
C1177      C1455   1.499       .  S
C1178      C1430   1.513       .  S
C1179      C1343   1.487       .  S
C1180      O2670   1.277       .  A
C1180      C1972   1.553       .  S
O1181      C1194   1.265       .  A
O1181     Co2685   2.019   1_565  S
O1182      C2691   1.283       .  A
O1182     Co1190   2.076       .  S
O1183      C1196   1.265   1_545  A
O1184      C1197   1.263       .  A
O1184     Co1192   1.974       .  S
O1185      C1197   1.270   1_545  A
O1186      C1196   1.305       .  A
O1186     Co1189   2.138   1_565  S
O1187      C1194   1.251       .  A
O1187     Co1192   1.962       .  S
O1188      C1195   1.283       .  A
O1188     Co1191   2.043       .  S
Co1189     O2677   2.009   1_445  S
Co1190     O2669   1.963       .  S
Co1190     O2689   2.059       .  S
Co1191     O1193   2.045   1_455  S
Co1192     O1941   2.058   1_565  S
O1193     Co2686   2.061       .  S
O1193     Co1940   2.065       .  S
C1194      C1444   1.479       .  S
C1195      O2678   1.285       .  A
C1195      C1957   1.552   1_455  S
C1196      C1371   1.523       .  S
C1197      C1360   1.511       .  S
O1198      C1206   1.269       .  A
O1199      C1207   1.262       .  A
O1199     Co1219   1.967       .  S
O1200      C1208   1.265       .  A
O1200     Co1220   2.027       .  S
O1201      C1209   1.288   1_565  A
O1201     Co1221   2.099       .  S
O1202      C1208   1.252       .  A
O1202     Co2715   1.958   1_455  S
O1203      C2705   1.278   1_455  A
O1203     Co1218   2.027       .  S
O1204      C1207   1.272       .  A
O1205      C1206   1.302       .  A
O1205     Co1220   2.115       .  S
C1206      C1416   1.484       .  S
C1207      C1388   1.516       .  S
C1208      C1301   1.487       .  S
C1209      O2699   1.269       .  A
C1209      C1943   1.531       .  S
O1210      C1223   1.239       .  A
O1210     Co2714   1.953       .  S
O1211      C2720   1.283       .  A
O1211     Co1219   2.087       .  S
O1212      C1225   1.268   1_545  A
O1213      C1226   1.252       .  A
O1213     Co1221   1.959       .  S
O1214      C1226   1.269   1_545  A
O1215      C1225   1.303       .  A
O1215     Co1218   2.125   1_565  S
O1216      C1223   1.253       .  A
O1216     Co1221   1.984       .  S
O1217      C1224   1.279   1_455  A
O1217     Co1220   2.026       .  S
Co1218     O2706   2.039   1_545  S
Co1219     O2698   1.955       .  S
Co1219     O2718   2.068       .  S
Co1220     O1222   2.037   1_455  S
Co1221     O1970   2.081   1_565  S
O1222     Co2715   2.062       .  S
O1222     Co1969   2.035       .  S
C1223      C1402   1.480       .  S
C1224      O2707   1.285       .  A
C1224      C1928   1.544       .  S
C1225      C1332   1.498       .  S
C1226      C1315   1.498       .  S
C1227      C1229   1.550       .  S
C1227      C1231   1.560       .  S
C1227      C1230   1.533       .  S
C1227      C1273   1.516       .  S
C1228      C1232   1.529       .  S
C1228      C1234   1.544       .  S
C1228      C1233   1.539       .  S
C1228      C1290   1.520       .  S
C1229      C1237   1.395       .  A
C1229      C1232   1.377       .  A
C1230      C1241   1.382       .  A
C1230      C1233   1.376       .  A
C1231      C1245   1.389       .  A
C1231      C1234   1.400       .  A
C1232      C1235   1.374       .  A
C1233      C1239   1.385       .  A
C1234      C1242   1.379       .  A
C1235      H1248   1.084       .  S
C1235      N1236   1.355       .  A
N1236      C1237   1.367       .  A
N1236      C1374   1.459       .  S
C1237      H1238   1.081       .  S
C1239      H1249   1.080       .  S
C1239      N1240   1.358       .  A
N1240      C1241   1.356       .  A
N1240      C1346   1.443       .  S
C1241      H1247   1.085       .  S
C1242      H1244   1.081       .  S
C1242      N1243   1.356       .  A
N1243      C1245   1.359       .  A
N1243      C1357   1.443       .  S
C1245      H1246   1.084       .  S
C1250      C1252   1.544       .  S
C1250      C1254   1.549       .  S
C1250      C1253   1.543       .  S
C1250      C1287   1.514       .  S
C1251      C1255   1.537       .  S
C1251      C1257   1.549       .  S
C1251      C1256   1.531       .  S
C1251      C1276   1.513       .  S
C1252      C1260   1.384       .  A
C1252      C1255   1.386       .  A
C1253      C1264   1.389       .  A
C1253      C1256   1.381       .  A
C1254      C1268   1.389       .  A
C1254      C1257   1.383       .  A
C1255      C1258   1.383       .  A
C1256      C1262   1.374       .  A
C1257      C1265   1.381       .  A
C1258      H1271   1.082       .  S
C1258      N1259   1.356       .  A
N1259      C1260   1.358       .  A
N1259      C1329   1.443       .  S
C1260      H1261   1.082       .  S
C1262      H1272   1.081       .  S
C1262      N1263   1.353       .  A
N1263      C1264   1.358       .  A
N1263      C1304   1.438       .  S
C1264      H1270   1.083       .  S
C1265      H1267   1.082       .  S
C1265      N1266   1.364       .  A
N1266      C1268   1.367       .  A
N1266      C1318   1.466       .  S
C1268      H1269   1.080       .  S
C1273      C1274   1.419       .  A
C1273      C1278   1.421       .  A
C1274      C1275   1.398       .  A
C1274      C1279   1.450       .  S
C1275      C1276   1.411       .  A
C1275      C1282   1.453       .  S
C1276      C1277   1.410       .  A
C1277      C1278   1.405       .  A
C1277      C1280   1.451       .  S
C1278      C1281   1.452       .  S
C1279      N1286   1.157       .  T
C1280      N1285   1.157       .  T
C1281      N1283   1.158       .  T
C1282      N1284   1.158       .  T
C1288      C1289   1.407   1_554  A
C1289      C1290   1.418       .  A
C1289      C1296   1.451       .  S
C1290      C1291   1.428       .  A
C1291      C1292   1.398       .  A
C1291      C1294   1.458       .  S
C1293      N1300   1.157       .  T
C1294      N1299   1.158       .  T
C1295      N1297   1.157       .  T
C1296      N1298   1.158       .  T
C1301      C1302   1.413       .  A
C1301      C1306   1.419       .  A
C1302      C1303   1.417       .  A
C1302      C1307   1.449       .  S
C1303      C1304   1.411       .  A
C1303      C1310   1.447       .  S
C1304      C1305   1.404       .  A
C1305      C1306   1.406       .  A
C1305      C1308   1.450       .  S
C1306      C1309   1.453       .  S
C1307      N1314   1.157       .  T
C1309      N1311   1.158   1_455  T
C1310      N1312   1.157       .  T
C1315      C1316   1.407       .  A
C1315      C1320   1.413       .  A
C1316      C1317   1.421       .  A
C1317      C1318   1.427       .  A
C1317      C1324   1.446       .  S
C1318      C1319   1.423       .  A
C1319      C1320   1.412       .  A
C1319      C1322   1.447       .  S
C1320      C1323   1.455       .  S
C1321      N1328   1.156       .  T
C1322      N1327   1.156       .  T
C1323      N1325   1.158       .  T
C1324      N1326   1.157       .  T
C1329      C1330   1.409       .  A
C1329      C1334   1.405       .  A
C1330      C1331   1.415       .  A
C1330      C1335   1.448       .  S
C1331      C1332   1.417       .  A
C1331      C1338   1.450       .  S
C1332      C1333   1.421       .  A
C1333      C1334   1.413       .  A
C1333      C1336   1.451   1_565  S
C1334      C1337   1.448       .  S
C1335      N1342   1.157       .  T
C1337      N1339   1.157       .  T
C1338      N1340   1.157   1_455  T
C1343      C1344   1.417       .  A
C1343      C1348   1.412       .  A
C1344      C1345   1.408       .  A
C1344      C1349   1.453       .  S
C1345      C1346   1.408       .  A
C1345      C1352   1.449       .  S
C1346      C1347   1.412       .  A
C1347      C1348   1.417       .  A
C1347      C1350   1.448       .  S
C1348      C1351   1.449       .  S
C1349      N2852   1.158   1_455  T
C1350      N1355   1.157       .  T
C1351      N1353   1.157       .  T
C1352      N1354   1.157       .  T
N1356      C2845   1.157       .  T
C1357      C1358   1.407       .  A
C1357      C1362   1.405       .  A
C1358      C1359   1.417       .  A
C1358      C1363   1.449       .  S
C1359      C1360   1.425       .  A
C1359      C1366   1.451   1_565  S
C1360      C1361   1.422       .  A
C1361      C1362   1.413       .  A
C1361      C1364   1.452       .  S
C1362      C1365   1.448       .  S
C1363      N1370   1.157   1_565  T
C1364      N1369   1.158       .  T
C1365      N1367   1.157       .  T
C1366      N1368   1.158       .  T
C1371      C1372   1.423       .  A
C1371      C1376   1.430       .  A
C1372      C1373   1.416       .  A
C1372      C1377   1.450       .  S
C1373      C1374   1.417       .  A
C1373      C1380   1.452       .  S
C1374      C1375   1.411       .  A
C1375      C1376   1.419       .  A
C1375      C1378   1.451       .  S
C1377      N1384   1.157       .  T
C1378      N1383   1.157       .  T
C1379      N1381   1.157       .  T
C1380      N1382   1.157       .  T
C1385      C1386   1.404       .  A
C1385      C1390   1.403       .  A
C1386      C1387   1.414       .  A
C1386      C1391   1.449       .  S
C1387      C1388   1.428       .  A
C1387      C1394   1.452       .  S
C1388      C1389   1.427       .  A
C1389      C1390   1.416       .  A
C1389      C1392   1.447       .  S
C1390      C1393   1.450       .  S
C1391      N1398   1.157       .  T
C1393      N1395   1.157       .  T
C1394      N1396   1.158       .  T
C1399      C1400   1.406       .  A
C1399      C1404   1.400       .  A
C1400      C1401   1.413       .  A
C1400      C1405   1.448       .  S
C1401      C1402   1.425       .  A
C1401      C1408   1.454       .  S
C1402      C1403   1.414       .  A
C1403      C1404   1.392       .  A
C1403      C1406   1.451       .  S
C1404      C1407   1.447       .  S
C1405      N1412   1.157       .  T
C1406      N1411   1.157       .  T
C1407      N1409   1.156       .  T
C1408      N1410   1.158       .  T
C1413      C1414   1.408       .  A
C1413      C1418   1.404       .  A
C1414      C1415   1.411       .  A
C1414      C1419   1.448       .  S
C1415      C1416   1.414       .  A
C1415      C1422   1.451       .  S
C1416      C1417   1.418       .  A
C1417      C1418   1.408       .  A
C1417      C1420   1.452       .  S
C1418      C1421   1.449       .  S
C1419      N1426   1.157       .  T
C1420      N1425   1.157       .  T
C1421      N1423   1.157       .  T
C1422      N1424   1.157       .  T
C1427      C1428   1.404       .  A
C1427      C1432   1.401       .  A
C1428      C1429   1.415       .  A
C1428      C1433   1.450       .  S
C1429      C1430   1.428       .  A
C1429      C1436   1.452       .  S
C1430      C1431   1.430       .  A
C1431      C1432   1.412       .  A
C1431      C1434   1.452       .  S
C1433      N1440   1.157       .  T
C1435      N1437   1.157       .  T
C1436      N2934   1.158       .  T
N1438      C2932   1.158   1_455  T
C1441      C1442   1.421   1_556  A
C1441      C1446   1.419       .  A
C1442      C1443   1.412       .  A
C1443      C1444   1.410   1_554  A
C1443      C1450   1.452       .  S
C1444      C1445   1.411       .  A
C1445      C1446   1.409       .  A
C1445      C1448   1.453       .  S
C1446      C1449   1.450       .  S
C1447      N1454   1.158       .  T
C1448      N2949   1.158       .  T
C1449      N1451   1.158       .  T
N1453      C2944   1.157       .  T
C1455      C1456   1.423       .  A
C1456      C1457   1.412   1_556  A
C1456      C1461   1.449       .  S
C1457      C1458   1.403   1_554  A
C1457      C1464   1.450       .  S
C1459      C1460   1.416       .  A
C1459      C1462   1.448       .  S
C1460      C1463   1.450       .  S
C1461      N1468   1.157   1_556  T
C1462      N1467   1.157       .  T
C1463      N1465   1.157       .  T
C1464      N1466   1.157       .  T
C1469      C1470   1.417       .  A
C1469      C1474   1.415       .  A
C1470      C1471   1.404       .  A
C1470      C1475   1.453       .  S
C1471      C1472   1.416       .  A
C1471      C1478   1.453       .  S
C1472      C1473   1.414       .  A
C1473      C1474   1.404       .  A
C1473      C1476   1.451       .  S
C1474      C1477   1.451       .  S
C1475      N1482   1.158       .  T
C1476      N1481   1.157       .  T
C1477      N1479   1.157       .  T
C1478      N1480   1.158       .  T
C1483      C1484   1.413       .  A
C1483      C1488   1.422       .  A
C1484      C1485   1.408       .  A
C1484      C1489   1.450       .  S
C1485      C1486   1.418       .  A
C1485      C1492   1.450       .  S
C1486      C1487   1.412       .  A
C1487      C1488   1.399       .  A
C1487      C1490   1.455       .  S
C1488      C1491   1.451       .  S
C1489      N1496   1.157       .  T
C1490      N1495   1.158       .  T
C1491      N1493   1.156       .  T
C1492      N1494   1.157       .  T
C1497      C1499   1.549       .  S
C1497      C1501   1.523       .  S
C1497      C1500   1.537       .  S
C1497      C1843   1.520       .  S
C1498      C1502   1.542       .  S
C1498      C1504   1.555       .  S
C1498      C1503   1.528       .  S
C1498      C1860   1.518       .  S
C1499      C1507   1.383       .  A
C1499      C1876   1.395       .  A
C1500      C1511   1.377       .  A
C1500      C1877   1.382       .  A
C1501      C1515   1.373       .  A
C1501      C1878   1.385       .  A
C1502      C1873   1.395   1_554  A
C1502      C1505   1.381       .  A
C1503      C1874   1.380   1_554  A
C1503      C1509   1.374       .  A
C1504      C1875   1.385   1_554  A
C1504      C1512   1.392       .  A
C1505      H1518   1.082       .  S
C1505      N1880   1.354   1_554  A
N1506      C1879   1.354       .  A
N1506      C1507   1.356       .  A
N1506      C1801   1.439       .  S
C1507      H1508   1.082       .  S
C1509      H1519   1.083       .  S
C1509      N1510   1.357   1_554  A
N1510      C1885   1.361       .  A
N1510      C2189   1.447       .  S
C1511      H1517   1.078       .  S
C1511      N1884   1.362       .  A
C1512      H1514   1.082       .  S
C1512      N1887   1.363   1_554  A
N1513      C1886   1.361       .  A
N1513      C1515   1.352       .  A
N1513      C1832   1.441       .  S
C1515      H1516   1.084       .  S
C1520      C1522   1.547       .  S
C1520      C1524   1.536       .  S
C1520      C1523   1.522       .  S
C1520      C1857   1.523       .  S
C1521      C1525   1.553       .  S
C1521      C1527   1.530       .  S
C1521      C1526   1.540       .  S
C1521      C1846   1.517       .  S
C1522      C1530   1.381       .  A
C1522      C1525   1.400       .  A
C1523      C1534   1.362       .  A
C1523      C1526   1.384       .  A
C1524      C1538   1.381       .  A
C1524      C1527   1.381       .  A
C1525      C1528   1.384       .  A
C1526      C1532   1.388       .  A
C1527      C1535   1.379       .  A
C1528      H1541   1.081       .  S
C1528      N1529   1.357       .  A
N1529      C1530   1.357       .  A
N1529      C1759   1.443       .  S
C1530      H1531   1.082       .  S
C1532      H1542   1.080       .  S
C1532      N1533   1.357       .  A
N1533      C1534   1.350       .  A
N1533      C1773   1.429       .  S
C1534      H1540   1.087       .  S
C1535      H1537   1.082       .  S
C1535      N1536   1.355       .  A
N1536      C1538   1.354       .  A
N1536      C1787   1.435       .  S
C1538      H1539   1.083       .  S
O1543      C1551   1.265       .  A
O1543     Co2311   1.879       .  S
O1544      C1552   1.262       .  A
O1544     Co1564   1.969       .  S
O1545      C1553   1.262       .  A
O1545     Co1565   2.026       .  S
O1546      C1554   1.287       .  A
O1546     Co1940   2.100   1_554  S
O1547      C1553   1.250       .  A
O1548     Co1937   2.021   1_554  S
O1549      C1552   1.270       .  A
O1549     Co2314   2.016   1_545  S
O1550      C1551   1.308       .  A
O1550     Co1565   2.141       .  S
C1551      C1829   1.498       .  S
C1552      C1804   1.514       .  S
C1553      C1717   1.487       .  S
O1555      C1568   1.265       .  A
O1556     Co1564   2.082   1_455  S
O1557      C1570   1.264       .  A
O1557     Co2313   1.884       .  S
O1558      C1571   1.263       .  A
O1558     Co1566   1.974       .  S
O1559      C1571   1.270       .  A
O1559     Co2312   2.019       .  S
O1560      C1570   1.305       .  A
O1560     Co1563   2.138       .  S
O1561      C1568   1.251       .  A
O1561     Co1566   1.961       .  S
O1562      C1569   1.283   1_565  A
O1562     Co1565   2.043   1_565  S
Co1563     O2291   1.879       .  S
Co1563     O1922   2.026       .  S
Co1563     O2315   2.043       .  S
Co1564     O2307   2.020       .  S
Co1565     O2305   1.884       .  S
Co1565     O1567   2.045       .  S
Co1566     O1920   2.094       .  S
Co1566     O2297   2.017       .  S
O1567     Co2311   2.044       .  S
C1568      C1818   1.478       .  S
C1570      C1745   1.524       .  S
C1571      C1734   1.510       .  S
O1572      C1580   1.269       .  A
O1572     Co2340   1.880       .  S
O1573      C1581   1.261       .  A
O1573     Co1593   1.968       .  S
O1574      C1582   1.265       .  A
O1574     Co1594   2.026       .  S
O1575      C1583   1.288       .  A
O1575     Co1595   2.099       .  S
O1576      C1582   1.252       .  A
O1577     Co1592   2.027       .  S
O1578      C1581   1.275       .  A
O1578     Co2343   2.039   1_545  S
O1579      C1580   1.302       .  A
O1579     Co1594   2.115       .  S
C1580      C1790   1.485       .  S
C1581      C1762   1.519       .  S
C1582      C1675   1.486       .  S
O1584      C1597   1.239       .  A
O1585     Co1593   2.089       .  S
O1586      C1599   1.268       .  A
O1586     Co2342   1.890       .  S
O1587      C1600   1.253       .  A
O1587     Co1595   1.959       .  S
O1588      C1600   1.268       .  A
O1588     Co2341   2.033       .  S
O1589      C1599   1.303       .  A
O1589     Co1592   2.125       .  S
O1590      C1597   1.253       .  A
O1590     Co1595   1.984       .  S
O1591      C1598   1.279   1_565  A
O1591     Co1594   2.026   1_565  S
Co1592     O2320   1.881       .  S
Co1592     O2344   2.052       .  S
Co1593     O2336   2.031       .  S
Co1594     O2334   1.889       .  S
Co1594     O1596   2.038       .  S
Co1595     O2326   2.034       .  S
O1596     Co2340   2.053       .  S
C1597      C1776   1.478       .  S
C1599      C1706   1.498       .  S
C1600      C1689   1.497       .  S
C1601      C1603   1.551       .  S
C1601      C1605   1.560       .  S
C1601      C1604   1.533       .  S
C1601      C1647   1.516       .  S
C1602      C1606   1.530       .  S
C1602      C1608   1.544       .  S
C1602      C1607   1.539       .  S
C1602      C1664   1.520       .  S
C1603      C1611   1.395       .  A
C1603      C1606   1.377       .  A
C1604      C1615   1.381       .  A
C1604      C1607   1.376       .  A
C1605      C1619   1.389       .  A
C1605      C1608   1.400       .  A
C1606      C1609   1.374       .  A
C1607      C1613   1.385       .  A
C1608      C1616   1.380       .  A
C1609      H1622   1.084       .  S
C1609      N1610   1.355       .  A
N1610      C1611   1.368       .  A
N1610      C1748   1.459       .  S
C1611      H1612   1.081       .  S
C1613      H1623   1.080       .  S
C1613      N1614   1.358       .  A
N1614      C1615   1.356       .  A
N1614      C1720   1.443       .  S
C1615      H1621   1.086       .  S
C1616      H1618   1.081       .  S
C1616      N1617   1.356       .  A
N1617      C1619   1.359       .  A
N1617      C1731   1.444       .  S
C1619      H1620   1.084       .  S
C1624      C1626   1.544       .  S
C1624      C1628   1.550       .  S
C1624      C1627   1.543       .  S
C1624      C1661   1.514       .  S
C1625      C1629   1.537       .  S
C1625      C1631   1.548       .  S
C1625      C1630   1.530       .  S
C1625      C1650   1.512       .  S
C1626      C1634   1.384       .  A
C1626      C1629   1.386       .  A
C1627      C1638   1.390       .  A
C1627      C1630   1.381       .  A
C1628      C1642   1.390       .  A
C1628      C1631   1.384       .  A
C1629      C1632   1.383       .  A
C1630      C1636   1.374       .  A
C1631      C1639   1.380       .  A
C1632      H1645   1.082       .  S
C1632      N1633   1.356       .  A
N1633      C1634   1.358       .  A
N1633      C1703   1.443       .  S
C1634      H1635   1.082       .  S
C1636      H1646   1.081       .  S
C1636      N1637   1.353       .  A
N1637      C1638   1.358       .  A
N1637      C1678   1.438       .  S
C1638      H1644   1.083       .  S
C1639      H1641   1.082       .  S
C1639      N1640   1.363       .  A
N1640      C1642   1.367       .  A
N1640      C1692   1.465       .  S
C1642      H1643   1.080       .  S
C1647      C1648   1.419       .  A
C1647      C1652   1.421       .  A
C1648      C1649   1.398       .  A
C1648      C1653   1.450       .  S
C1649      C1650   1.411       .  A
C1649      C1656   1.453       .  S
C1650      C1651   1.410       .  A
C1651      C1652   1.405       .  A
C1651      C1654   1.451       .  S
C1652      C1655   1.452       .  S
C1653      N1660   1.157       .  T
C1654      N1659   1.157       .  T
C1655      N1657   1.158       .  T
C1656      N1658   1.158       .  T
C1661      C2036   1.413       .  A
C1661      C2040   1.412   1_554  A
C1662      C2035   1.413       .  A
C1662      C1663   1.407       .  A
C1662      C2041   1.451       .  S
C1663      C1664   1.418       .  A
C1663      C1670   1.450       .  S
C1664      C1665   1.428       .  A
C1665      C1666   1.398       .  A
C1665      C1668   1.457       .  S
C1666      C2035   1.410       .  A
C1666      C2043   1.453       .  S
C1667      C2036   1.451       .  S
C1667      N1674   1.157       .  T
C1668      N1673   1.158       .  T
C1669      C2040   1.455   1_554  S
C1669      N1671   1.157       .  T
C1670      N1672   1.158       .  T
C1675      C1676   1.413       .  A
C1675      C1680   1.418       .  A
C1676      C1677   1.417       .  A
C1676      C1681   1.449       .  S
C1677      C1678   1.411       .  A
C1677      C1684   1.447       .  S
C1678      C1679   1.404       .  A
C1679      C1680   1.406       .  A
C1679      C1682   1.450       .  S
C1680      C1683   1.453       .  S
C1681      N1688   1.157       .  T
C1682      N2061   1.157       .  T
C1683      N1685   1.158       .  T
C1684      N1686   1.157       .  T
N1687      C2056   1.157       .  T
C1689      C1690   1.407       .  A
C1689      C1694   1.413       .  A
C1690      C1691   1.421       .  A
C1690      C2443   1.449       .  S
C1691      C1692   1.426       .  A
C1691      C1698   1.446       .  S
C1692      C1693   1.423       .  A
C1693      C1694   1.411       .  A
C1693      C1696   1.447       .  S
C1694      C1697   1.455       .  S
C1695      C2438   1.449       .  S
C1695      N1702   1.156   1_565  T
C1696      N1701   1.156       .  T
C1697      N1699   1.158       .  T
C1698      N1700   1.157       .  T
C1703      C1704   1.409       .  A
C1703      C1708   1.405       .  A
C1704      C1705   1.415       .  A
C1704      C1709   1.448       .  S
C1705      C1706   1.417       .  A
C1705      C1712   1.450       .  S
C1706      C1707   1.421       .  A
C1707      C1708   1.413       .  A
C1707      C1710   1.451       .  S
C1708      C1711   1.449       .  S
C1709      N1716   1.157       .  T
C1710      N2463   1.157       .  T
C1711      N1713   1.157       .  T
C1712      N1714   1.157       .  T
N1715      C2458   1.157       .  T
C1717      C1718   1.417       .  A
C1717      C1722   1.413       .  A
C1718      C1719   1.408       .  A
C1718      C1723   1.453       .  S
C1719      C1720   1.408       .  A
C1719      C1726   1.449       .  S
C1720      C1721   1.412       .  A
C1721      C1722   1.417       .  A
C1721      C1724   1.448       .  S
C1722      C1725   1.449       .  S
C1724      N1729   1.157       .  T
C1725      N1727   1.157       .  T
C1726      N1728   1.157       .  T
C1731      C1732   1.407       .  A
C1731      C1736   1.406       .  A
C1732      C1733   1.417       .  A
C1732      C1737   1.449       .  S
C1733      C1734   1.425       .  A
C1733      C1740   1.451       .  S
C1734      C1735   1.422       .  A
C1735      C1736   1.413       .  A
C1735      C1738   1.452       .  S
C1736      C1739   1.448       .  S
C1737      N1744   1.157       .  T
C1738      N1743   1.158       .  T
C1739      N1741   1.157       .  T
C1740      N1742   1.158       .  T
C1745      C1746   1.423       .  A
C1745      C1750   1.430       .  A
C1746      C1747   1.416       .  A
C1746      C1751   1.450       .  S
C1747      C1748   1.417       .  A
C1747      C1754   1.452       .  S
C1748      C1749   1.411       .  A
C1749      C1750   1.420       .  A
C1749      C1752   1.451       .  S
C1750      C2501   1.451       .  S
C1751      N1758   1.157       .  T
C1752      N1757   1.157       .  T
C1753      C2498   1.451       .  S
C1753      N1755   1.157   1_565  T
C1754      N1756   1.157       .  T
C1759      C1760   1.404       .  A
C1759      C1764   1.402       .  A
C1760      C1761   1.415       .  A
C1760      C1765   1.450       .  S
C1761      C1762   1.430       .  A
C1761      C1768   1.452       .  S
C1762      C1763   1.426       .  A
C1763      C1764   1.415       .  A
C1763      C1766   1.447       .  S
C1764      C1767   1.450       .  S
C1765      N1772   1.157       .  T
C1766      N2519   1.156   1_545  T
C1767      N1769   1.157       .  T
C1768      N1770   1.158   1_655  T
N1771      C2514   1.156       .  T
C1773      C1774   1.406       .  A
C1773      C1778   1.400       .  A
C1774      C1775   1.412       .  A
C1774      C1779   1.448       .  S
C1775      C1776   1.424       .  A
C1775      C1782   1.454   1_655  S
C1776      C1777   1.414       .  A
C1777      C1778   1.392       .  A
C1777      C1780   1.451       .  S
C1778      C1781   1.448       .  S
C1779      N1786   1.157       .  T
C1780      N1785   1.157       .  T
C1781      N1783   1.156       .  T
C1782      N1784   1.158       .  T
C1787      C1788   1.408       .  A
C1787      C1792   1.404       .  A
C1788      C1789   1.411       .  A
C1788      C1793   1.448       .  S
C1789      C1790   1.415       .  A
C1789      C1796   1.451       .  S
C1790      C1791   1.419       .  A
C1791      C1792   1.409       .  A
C1791      C1794   1.452       .  S
C1792      C1795   1.449       .  S
C1793      N1800   1.157       .  T
C1794      N1799   1.157   1_545  T
C1795      N1797   1.157       .  T
C1796      N1798   1.157       .  T
C1801      C1802   1.404       .  A
C1801      C1806   1.400       .  A
C1802      C1803   1.415       .  A
C1802      C1807   1.450       .  S
C1803      C1804   1.428       .  A
C1803      C1810   1.452       .  S
C1804      C1805   1.430       .  A
C1805      C1806   1.412       .  A
C1805      C1808   1.451       .  S
C1806      C2183   1.449       .  S
C1807      N1814   1.157       .  T
C1808      N2561   1.158   1_545  T
C1809      C2180   1.450       .  S
C1809      N1811   1.157       .  T
N1813      C2556   1.158       .  T
C1815      C1816   1.421       .  A
C1815      C1820   1.418       .  A
C1815      N1884   1.453       .  S
C1816      C1817   1.412       .  A
C1816      C2195   1.450       .  S
C1817      C1818   1.410       .  A
C1817      C1824   1.452       .  S
C1818      C1819   1.411       .  A
C1819      C1820   1.408       .  A
C1819      C1822   1.453       .  S
C1820      C1823   1.451       .  S
C1821      C2190   1.451       .  S
C1821      N1828   1.158       .  T
C1823      N1825   1.158       .  T
C1824      N2200   1.157       .  T
N1826      C2198   1.157       .  T
C1829      C1830   1.423       .  A
C1829      C2208   1.415       .  A
C1830      C1831   1.411       .  A
C1830      C1835   1.449       .  S
C1831      C1832   1.403       .  A
C1831      C1838   1.450       .  S
C1832      C2207   1.409       .  A
C1833      C2206   1.409       .  A
C1833      C1834   1.416       .  A
C1833      C1836   1.449       .  S
C1834      C2203   1.418       .  A
C1834      C1837   1.450       .  S
C1835      N1842   1.157   1_545  T
C1836      N1841   1.157       .  T
C1837      N1839   1.157       .  T
C1838      N1840   1.157       .  T
C1843      C1844   1.417       .  A
C1843      C1848   1.416       .  A
C1844      C1845   1.404       .  A
C1844      C1849   1.452       .  S
C1845      C1846   1.417       .  A
C1845      C1852   1.453       .  S
C1846      C1847   1.413       .  A
C1847      C1848   1.404       .  A
C1847      C1850   1.451       .  S
C1848      C1851   1.451       .  S
C1849      N1856   1.158       .  T
C1850      N1855   1.157       .  T
C1851      N1853   1.157       .  T
C1852      N1854   1.158       .  T
C1857      C1858   1.413       .  A
C1857      C1862   1.422       .  A
C1858      C1859   1.408       .  A
C1858      C1863   1.450       .  S
C1859      C1860   1.417       .  A
C1859      C1866   1.450       .  S
C1860      C1861   1.412       .  A
C1861      C1862   1.399       .  A
C1861      C1864   1.455       .  S
C1862      C1865   1.451       .  S
C1863      N1870   1.157       .  T
C1864      N1869   1.158       .  T
C1865      N1867   1.156       .  T
C1866      N1868   1.157       .  T
C1871      C1873   1.548       .  S
C1871      C1875   1.524       .  S
C1871      C1874   1.535       .  S
C1871      C2217   1.519       .  S
C1872      C1876   1.544       .  S
C1872      C1878   1.554       .  S
C1872      C1877   1.532       .  S
C1872      C2234   1.522       .  S
C1873      C1881   1.381       .  A
C1874      C1885   1.375       .  A
C1875      C1889   1.373       .  A
C1876      C1879   1.382       .  A
C1877      C1883   1.376       .  A
C1878      C1886   1.391       .  A
C1879      H1892   1.082       .  S
N1880      C1881   1.355       .  A
N1880      C2175   1.437       .  S
C1881      H1882   1.082       .  S
C1883      H1893   1.085       .  S
C1883      N1884   1.360       .  A
C1885      H1891   1.080       .  S
C1886      H1888   1.082       .  S
N1887      C1889   1.352       .  A
N1887      C2206   1.444       .  S
C1889      H1890   1.084       .  S
C1894      C1896   1.547       .  S
C1894      C1898   1.536       .  S
C1894      C1897   1.529       .  S
C1894      C2231   1.529       .  S
C1895      C1899   1.552       .  S
C1895      C1901   1.531       .  S
C1895      C1900   1.546       .  S
C1895      C2220   1.518       .  S
C1896      C1904   1.381       .  A
C1896      C1899   1.400       .  A
C1897      C1908   1.368       .  A
C1897      C1900   1.383       .  A
C1898      C1912   1.381       .  A
C1898      C1901   1.380       .  A
C1899      C1902   1.382       .  A
C1900      C1906   1.395       .  A
C1901      C1909   1.381       .  A
C1902      H1915   1.082       .  S
C1902      N1903   1.355       .  A
N1903      C1904   1.358       .  A
N1903      C2133   1.440       .  S
C1904      H1905   1.082       .  S
C1906      H1916   1.079       .  S
C1906      N1907   1.362       .  A
N1907      C1908   1.354       .  A
N1907      C2147   1.445       .  S
C1908      H1914   1.088       .  S
C1909      H1911   1.082       .  S
C1909      N1910   1.355       .  A
N1910      C1912   1.354       .  A
N1910      C2161   1.436       .  S
C1912      H1913   1.083       .  S
O1917      C1925   1.268       .  A
O1917     Co2685   1.890       .  S
O1918      C1926   1.261       .  A
O1918     Co1938   1.964       .  S
O1919      C1927   1.263       .  A
O1919     Co1939   2.024       .  S
O1920      C1928   1.287       .  A
O1921      C1927   1.253       .  A
O1923      C1926   1.269       .  A
O1923     Co2688   2.009   1_545  S
O1924      C1925   1.306       .  A
O1924     Co1939   2.135       .  S
C1925      C2203   1.505       .  S
C1926      C2178   1.505       .  S
C1927      C2091   1.486       .  S
O1929      C1942   1.262       .  A
O1930     Co1938   2.086   1_455  S
O1931      C1944   1.265       .  A
O1931     Co2687   1.882       .  S
O1932      C1945   1.265       .  A
O1932     Co1940   1.979       .  S
O1933      C1945   1.270       .  A
O1933     Co2686   2.020       .  S
O1934      C1944   1.304       .  A
O1934     Co1937   2.136       .  S
O1935      C1942   1.251       .  A
O1935     Co1940   1.959       .  S
O1936      C1943   1.279   1_565  A
O1936     Co1939   2.026   1_565  S
Co1937     O2665   1.888       .  S
Co1937     O2689   2.040       .  S
Co1938     O2681   2.021       .  S
Co1939     O2679   1.884       .  S
Co1939     O1941   2.039       .  S
Co1940     O2671   2.009       .  S
O1941     Co2685   2.042       .  S
C1942      C2192   1.471       .  S
C1944      C2119   1.522       .  S
C1945      C2108   1.512       .  S
O1946      C1954   1.231       .  A
O1946     Co2714   1.900   1_545  S
O1947      C1955   1.261       .  A
O1947     Co1967   1.967       .  S
O1948      C1956   1.267       .  A
O1948     Co1968   2.018       .  S
O1949      C1957   1.289       .  A
O1949     Co1969   2.101       .  S
O1950      C1956   1.255       .  A
O1951     Co1966   1.993       .  S
O1952      C1955   1.272       .  A
O1952     Co2717   2.029   1_545  S
O1953      C1954   1.284       .  A
O1953     Co1968   2.088       .  S
C1954      C2164   1.485       .  S
C1955      C2136   1.515       .  S
C1956      C2049   1.478       .  S
O1958      C1971   1.263   1_455  A
O1959     Co1967   2.092       .  S
O1960      C1973   1.272       .  A
O1960     Co2716   1.869       .  S
O1961      C1974   1.255       .  A
O1961     Co1969   1.960       .  S
O1962      C1974   1.269       .  A
O1962     Co2715   2.025       .  S
O1963      C1973   1.309       .  A
O1963     Co1966   2.116       .  S
O1964      C1971   1.244       .  A
O1964     Co1969   1.949       .  S
O1965      C1972   1.282   1_565  A
O1965     Co1968   2.036   1_565  S
Co1966     O2694   1.897       .  S
Co1966     O2718   2.070       .  S
Co1967     O2710   2.026       .  S
Co1968     O2708   1.869       .  S
Co1968     O1970   2.017       .  S
Co1969     O2700   2.033       .  S
O1970     Co2714   2.071   1_545  S
C1971      C2150   1.510       .  S
C1973      C2080   1.485       .  S
C1974      C2063   1.491       .  S
C1975      C1977   1.550       .  S
C1975      C1979   1.560       .  S
C1975      C1978   1.533       .  S
C1975      C2021   1.521       .  S
C1976      C1980   1.527       .  S
C1976      C1982   1.543       .  S
C1976      C1981   1.540       .  S
C1976      C2038   1.521       .  S
C1977      C1985   1.394       .  A
C1977      C1980   1.377       .  A
C1978      C1989   1.380       .  A
C1978      C1981   1.379       .  A
C1979      C1993   1.388       .  A
C1979      C1982   1.400       .  A
C1980      C1983   1.373       .  A
C1981      C1987   1.385       .  A
C1982      C1990   1.379       .  A
C1983      H1996   1.084       .  S
C1983      N1984   1.355       .  A
N1984      C1985   1.367       .  A
N1984      C2122   1.457       .  S
C1985      H1986   1.080       .  S
C1987      H1997   1.079       .  S
C1987      N1988   1.358       .  A
N1988      C1989   1.355       .  A
N1988      C2094   1.441       .  S
C1989      H1995   1.086       .  S
C1990      H1992   1.082       .  S
C1990      N1991   1.355       .  A
N1991      C1993   1.360       .  A
N1991      C2105   1.443       .  S
C1993      H1994   1.083       .  S
C1998      C2000   1.542       .  S
C1998      C2002   1.547       .  S
C1998      C2001   1.543       .  S
C1998      C2035   1.515       .  S
C1999      C2003   1.538       .  S
C1999      C2005   1.548       .  S
C1999      C2004   1.531       .  S
C1999      C2024   1.517       .  S
C2000      C2008   1.382       .  A
C2000      C2003   1.388       .  A
C2001      C2012   1.388       .  A
C2001      C2004   1.383       .  A
C2002      C2016   1.388       .  A
C2002      C2005   1.384       .  A
C2003      C2006   1.382       .  A
C2004      C2010   1.375       .  A
C2005      C2013   1.380       .  A
C2006      H2019   1.082       .  S
C2006      N2007   1.357       .  A
N2007      C2008   1.357       .  A
N2007      C2077   1.441       .  S
C2008      H2009   1.082       .  S
C2010      H2020   1.082       .  S
C2010      N2011   1.352       .  A
N2011      C2012   1.358       .  A
N2011      C2052   1.437       .  S
C2012      H2018   1.082       .  S
C2013      H2015   1.081       .  S
C2013      N2014   1.363       .  A
N2014      C2016   1.364       .  A
N2014      C2066   1.461       .  S
C2016      H2017   1.082       .  S
C2021      C2022   1.418       .  A
C2021      C2026   1.422       .  A
C2022      C2023   1.401       .  A
C2022      C2027   1.450       .  S
C2023      C2024   1.412       .  A
C2023      C2030   1.451       .  S
C2024      C2025   1.410       .  A
C2025      C2026   1.407       .  A
C2025      C2028   1.450       .  S
C2026      C2029   1.452       .  S
C2027      N2034   1.157       .  T
C2028      N2033   1.157       .  T
C2029      N2031   1.157       .  T
C2030      N2032   1.157       .  T
C2036      C2037   1.407   1_554  A
C2037      C2038   1.419       .  A
C2037      C2044   1.451       .  S
C2038      C2039   1.425       .  A
C2039      C2040   1.398       .  A
C2039      C2042   1.456       .  S
C2041      N2048   1.157       .  T
C2042      N2047   1.158       .  T
C2043      N2045   1.157       .  T
C2044      N2046   1.158       .  T
C2049      C2050   1.409       .  A
C2049      C2054   1.416       .  A
C2050      C2051   1.414       .  A
C2050      C2055   1.449       .  S
C2051      C2052   1.411       .  A
C2051      C2058   1.447       .  S
C2052      C2053   1.404       .  A
C2053      C2054   1.405       .  A
C2053      C2056   1.448       .  S
C2054      C2057   1.453       .  S
C2055      N2062   1.157       .  T
C2057      N2059   1.158       .  T
C2058      N2060   1.157       .  T
C2063      C2064   1.408       .  A
C2063      C2068   1.412       .  A
C2064      C2065   1.419       .  A
C2064      C2817   1.450       .  S
C2065      C2066   1.425       .  A
C2065      C2072   1.446       .  S
C2066      C2067   1.421       .  A
C2067      C2068   1.408       .  A
C2067      C2070   1.446       .  S
C2068      C2071   1.457       .  S
C2069      C2812   1.450   1_545  S
C2069      N2076   1.157       .  T
C2070      N2075   1.156       .  T
C2071      N2073   1.158       .  T
C2072      N2074   1.156       .  T
C2077      C2078   1.409       .  A
C2077      C2082   1.406       .  A
C2078      C2079   1.411       .  A
C2078      C2083   1.447       .  S
C2079      C2080   1.413       .  A
C2079      C2086   1.452       .  S
C2080      C2081   1.419       .  A
C2081      C2082   1.411       .  A
C2081      C2084   1.452       .  S
C2082      C2085   1.447       .  S
C2083      N2090   1.157       .  T
C2084      N2837   1.157       .  T
C2085      N2087   1.157       .  T
C2086      N2088   1.157       .  T
N2089      C2832   1.157       .  T
C2091      C2092   1.415       .  A
C2091      C2096   1.413       .  A
C2092      C2093   1.406       .  A
C2092      C2097   1.453       .  S
C2093      C2094   1.406       .  A
C2093      C2100   1.449       .  S
C2094      C2095   1.411       .  A
C2095      C2096   1.418       .  A
C2095      C2098   1.448       .  S
C2096      C2099   1.449       .  S
C2098      N2103   1.157       .  T
C2099      N2101   1.158       .  T
C2100      N2102   1.157       .  T
C2105      C2106   1.407       .  A
C2105      C2110   1.405       .  A
C2106      C2107   1.418       .  A
C2106      C2111   1.449       .  S
C2107      C2108   1.426       .  A
C2107      C2114   1.450       .  S
C2108      C2109   1.420       .  A
C2109      C2110   1.412       .  A
C2109      C2112   1.451       .  S
C2110      C2113   1.448       .  S
C2111      N2118   1.157       .  T
C2112      N2117   1.157       .  T
C2113      N2115   1.157       .  T
C2114      N2116   1.158       .  T
C2119      C2120   1.423       .  A
C2119      C2124   1.430       .  A
C2120      C2121   1.414       .  A
C2120      C2125   1.450       .  S
C2121      C2122   1.415       .  A
C2121      C2128   1.452       .  S
C2122      C2123   1.411       .  A
C2123      C2124   1.418       .  A
C2123      C2126   1.450       .  S
C2124      C2875   1.451       .  S
C2125      N2132   1.157       .  T
C2126      N2131   1.157       .  T
C2127      C2872   1.451       .  S
C2127      N2129   1.157   1_565  T
C2128      N2130   1.157       .  T
C2133      C2134   1.401       .  A
C2133      C2138   1.403       .  A
C2134      C2135   1.411       .  A
C2134      C2139   1.450       .  S
C2135      C2136   1.430       .  A
C2135      C2142   1.452       .  S
C2136      C2137   1.429       .  A
C2137      C2138   1.415       .  A
C2137      C2140   1.449       .  S
C2138      C2141   1.450       .  S
C2139      N2146   1.157       .  T
C2140      N2893   1.157   1_545  T
C2141      N2143   1.157       .  T
C2142      N2144   1.158   1_655  T
N2145      C2888   1.157       .  T
C2147      C2148   1.411       .  A
C2147      C2152   1.401       .  A
C2148      C2149   1.424       .  A
C2148      C2153   1.447       .  S
C2149      C2150   1.424       .  A
C2149      C2156   1.449   1_655  S
C2150      C2151   1.429       .  A
C2151      C2152   1.399       .  A
C2151      C2154   1.454       .  S
C2152      C2155   1.450       .  S
C2153      N2160   1.157       .  T
C2154      N2159   1.158       .  T
C2155      N2157   1.156       .  T
C2156      N2158   1.158       .  T
C2161      C2162   1.408       .  A
C2161      C2166   1.404       .  A
C2162      C2163   1.408       .  A
C2162      C2167   1.445       .  S
C2163      C2164   1.404       .  A
C2163      C2170   1.449       .  S
C2164      C2165   1.428       .  A
C2165      C2166   1.413       .  A
C2165      C2168   1.454   1_545  S
C2166      C2169   1.453       .  S
C2167      N2174   1.157       .  T
C2168      N2173   1.158       .  T
C2169      N2171   1.158       .  T
C2170      N2172   1.157       .  T
C2175      C2176   1.405       .  A
C2175      C2180   1.401       .  A
C2176      C2177   1.412       .  A
C2176      C2181   1.449       .  S
C2177      C2178   1.424       .  A
C2177      C2184   1.452       .  S
C2178      C2179   1.428       .  A
C2179      C2180   1.410       .  A
C2179      C2182   1.452       .  S
C2181      N2188   1.157       .  T
C2182      N2935   1.158   1_545  T
C2183      N2185   1.157       .  T
N2187      C2930   1.158       .  T
C2189      C2190   1.420   1_556  A
C2189      C2194   1.415       .  A
C2190      C2191   1.410       .  A
C2191      C2192   1.411   1_554  A
C2191      C2198   1.452       .  S
C2192      C2193   1.409       .  A
C2193      C2194   1.404       .  A
C2193      C2196   1.452       .  S
C2194      C2197   1.450       .  S
C2195      N2202   1.158       .  T
C2197      N2199   1.157       .  T
C2203      C2204   1.424       .  A
C2204      C2205   1.415   1_556  A
C2204      C2209   1.449       .  S
C2205      C2206   1.404   1_554  A
C2205      C2212   1.450       .  S
C2207      C2208   1.415       .  A
C2207      C2210   1.448       .  S
C2208      C2211   1.450       .  S
C2209      N2216   1.157   1_546  T
C2210      N2215   1.157       .  T
C2211      N2213   1.158       .  T
C2212      N2214   1.157       .  T
C2217      C2218   1.416       .  A
C2217      C2222   1.414       .  A
C2218      C2219   1.404       .  A
C2218      C2223   1.453       .  S
C2219      C2220   1.417       .  A
C2219      C2226   1.453       .  S
C2220      C2221   1.417       .  A
C2221      C2222   1.403       .  A
C2221      C2224   1.452       .  S
C2222      C2225   1.452       .  S
C2223      N2230   1.158       .  T
C2224      N2229   1.157       .  T
C2225      N2227   1.157       .  T
C2226      N2228   1.158       .  T
C2231      C2232   1.417       .  A
C2231      C2236   1.428       .  A
C2232      C2233   1.409       .  A
C2232      C2237   1.449       .  S
C2233      C2234   1.414       .  A
C2233      C2240   1.450       .  S
C2234      C2235   1.410       .  A
C2235      C2236   1.401       .  A
C2235      C2238   1.455       .  S
C2236      C2239   1.452       .  S
C2237      N2244   1.157       .  T
C2238      N2243   1.158       .  T
C2239      N2241   1.157       .  T
C2240      N2242   1.157       .  T
C2245      C2247   1.550       .  S
C2245      C2249   1.522       .  S
C2245      C2248   1.537       .  S
C2245      C2591   1.519       .  S
C2246      C2250   1.542       .  S
C2246      C2252   1.555       .  S
C2246      C2251   1.528       .  S
C2246      C2608   1.518       .  S
C2247      C2255   1.383       .  A
C2247      C2624   1.395       .  A
C2248      C2259   1.377       .  A
C2248      C2625   1.382       .  A
C2249      C2263   1.373       .  A
C2249      C2626   1.384       .  A
C2250      C2621   1.395   1_554  A
C2250      C2253   1.381       .  A
C2251      C2622   1.381   1_554  A
C2251      C2257   1.374       .  A
C2252      C2623   1.384   1_554  A
C2252      C2260   1.393       .  A
C2253      H2266   1.082       .  S
C2253      N2628   1.354   1_554  A
N2254      C2627   1.355       .  A
N2254      C2255   1.356       .  A
N2254      C2549   1.441       .  S
C2255      H2256   1.082       .  S
C2257      H2267   1.083       .  S
C2257      N2258   1.356   1_554  A
N2258      C2633   1.360       .  A
N2258      C2937   1.445       .  S
C2259      H2265   1.078       .  S
C2259      N2632   1.362       .  A
C2260      H2262   1.082       .  S
C2260      N2635   1.363   1_554  A
N2261      C2634   1.361       .  A
N2261      C2263   1.351       .  A
N2261      C2580   1.440       .  S
C2263      H2264   1.084       .  S
C2268      C2270   1.549       .  S
C2268      C2272   1.537       .  S
C2268      C2271   1.526       .  S
C2268      C2605   1.522       .  S
C2269      C2273   1.553       .  S
C2269      C2275   1.531       .  S
C2269      C2274   1.544       .  S
C2269      C2594   1.516       .  S
C2270      C2278   1.382       .  A
C2270      C2273   1.399       .  A
C2271      C2282   1.367       .  A
C2271      C2274   1.383       .  A
C2272      C2286   1.382       .  A
C2272      C2275   1.380       .  A
C2273      C2276   1.385       .  A
C2274      C2280   1.392       .  A
C2275      C2283   1.380       .  A
C2276      H2289   1.082       .  S
C2276      N2277   1.357       .  A
N2277      C2278   1.357       .  A
N2277      C2507   1.443       .  S
C2278      H2279   1.082       .  S
C2280      H2290   1.080       .  S
C2280      N2281   1.360       .  A
N2281      C2282   1.353       .  A
N2281      C2521   1.438       .  S
C2282      H2288   1.086       .  S
C2283      H2285   1.082       .  S
C2283      N2284   1.355       .  A
N2284      C2286   1.354       .  A
N2284      C2535   1.436       .  S
C2286      H2287   1.082       .  S
O2291      C2299   1.265       .  A
O2292      C2300   1.262       .  A
O2292     Co2312   1.967       .  S
O2293      C2301   1.262       .  A
O2293     Co2313   2.025       .  S
O2294      C2302   1.286   1_565  A
O2294     Co2688   2.098   1_554  S
O2295      C2301   1.250       .  A
O2296     Co2685   2.020   1_554  S
O2297      C2300   1.271       .  A
O2298      C2299   1.308       .  A
O2298     Co2313   2.140       .  S
C2299      C2577   1.497       .  S
C2300      C2552   1.514       .  S
C2301      C2465   1.487       .  S
O2303      C2316   1.265       .  A
O2304     Co2312   2.076   1_455  S
O2305      C2318   1.265   1_545  A
O2306      C2319   1.263       .  A
O2306     Co2314   1.972       .  S
O2307      C2319   1.270   1_545  A
O2308      C2318   1.305       .  A
O2308     Co2311   2.139   1_565  S
O2309      C2316   1.252       .  A
O2309     Co2314   1.963       .  S
O2310      C2317   1.283       .  A
O2310     Co2313   2.041       .  S
Co2311     O2670   2.026       .  S
Co2313     O2315   2.045       .  S
Co2314     O2668   2.091       .  S
C2316      C2566   1.478       .  S
C2318      C2493   1.525       .  S
C2319      C2482   1.510       .  S
O2320      C2328   1.269       .  A
O2321      C2329   1.263       .  A
O2321     Co2341   1.972       .  S
O2322      C2330   1.265       .  A
O2322     Co2342   2.027       .  S
O2323      C2331   1.287   1_565  A
O2323     Co2343   2.096       .  S
O2324      C2330   1.252       .  A
O2325     Co2340   2.028       .  S
O2326      C2329   1.273       .  A
O2327      C2328   1.302       .  A
O2327     Co2342   2.115       .  S
C2328      C2538   1.485       .  S
C2329      C2510   1.518       .  S
C2330      C2423   1.486       .  S
O2332      C2345   1.262   1_455  A
O2333     Co2341   2.088       .  S
O2334      C2347   1.268   1_545  A
O2335      C2348   1.253       .  A
O2335     Co2343   1.956       .  S
O2336      C2348   1.270   1_545  A
O2337      C2347   1.303       .  A
O2337     Co2340   2.126   1_565  S
O2338      C2345   1.245       .  A
O2338     Co2343   1.953       .  S
O2339      C2346   1.279       .  A
O2339     Co2342   2.024       .  S
Co2342     O2344   2.038       .  S
C2345      C2524   1.506       .  S
C2347      C2454   1.498       .  S
C2348      C2437   1.493       .  S
C2349      C2351   1.551       .  S
C2349      C2353   1.560       .  S
C2349      C2352   1.533       .  S
C2349      C2395   1.517       .  S
C2350      C2354   1.530       .  S
C2350      C2356   1.545       .  S
C2350      C2355   1.539       .  S
C2350      C2412   1.521       .  S
C2351      C2359   1.395       .  A
C2351      C2354   1.377       .  A
C2352      C2363   1.382       .  A
C2352      C2355   1.376       .  A
C2353      C2367   1.389       .  A
C2353      C2356   1.400       .  A
C2354      C2357   1.375       .  A
C2355      C2361   1.384       .  A
C2356      C2364   1.380       .  A
C2357      H2370   1.084       .  S
C2357      N2358   1.355       .  A
N2358      C2359   1.367       .  A
N2358      C2496   1.459       .  S
C2359      H2360   1.081       .  S
C2361      H2371   1.080       .  S
C2361      N2362   1.358       .  A
N2362      C2363   1.356       .  A
N2362      C2468   1.443       .  S
C2363      H2369   1.085       .  S
C2364      H2366   1.081       .  S
C2364      N2365   1.356       .  A
N2365      C2367   1.360       .  A
N2365      C2479   1.444       .  S
C2367      H2368   1.084       .  S
C2372      C2374   1.543       .  S
C2372      C2376   1.550       .  S
C2372      C2375   1.543       .  S
C2372      C2409   1.513       .  S
C2373      C2377   1.537       .  S
C2373      C2379   1.548       .  S
C2373      C2378   1.531       .  S
C2373      C2398   1.513       .  S
C2374      C2382   1.383       .  A
C2374      C2377   1.386       .  A
C2375      C2386   1.389       .  A
C2375      C2378   1.381       .  A
C2376      C2390   1.390       .  A
C2376      C2379   1.383       .  A
C2377      C2380   1.383       .  A
C2378      C2384   1.374       .  A
C2379      C2387   1.379       .  A
C2380      H2393   1.082       .  S
C2380      N2381   1.356       .  A
N2381      C2382   1.358       .  A
N2381      C2451   1.443       .  S
C2382      H2383   1.082       .  S
C2384      H2394   1.081       .  S
C2384      N2385   1.353       .  A
N2385      C2386   1.358       .  A
N2385      C2426   1.438       .  S
C2386      H2392   1.083       .  S
C2387      H2389   1.082       .  S
C2387      N2388   1.363       .  A
N2388      C2390   1.367       .  A
N2388      C2440   1.465       .  S
C2390      H2391   1.081       .  S
C2395      C2396   1.419       .  A
C2395      C2400   1.422       .  A
C2396      C2397   1.399       .  A
C2396      C2401   1.450       .  S
C2397      C2398   1.411       .  A
C2397      C2404   1.454       .  S
C2398      C2399   1.410       .  A
C2399      C2400   1.405       .  A
C2399      C2402   1.450       .  S
C2400      C2403   1.452       .  S
C2401      N2408   1.156       .  T
C2402      N2407   1.157       .  T
C2403      N2405   1.158       .  T
C2404      N2406   1.158       .  T
C2409      C2784   1.413       .  A
C2409      C2788   1.412   1_554  A
C2410      C2783   1.412       .  A
C2410      C2411   1.407       .  A
C2410      C2789   1.450       .  S
C2411      C2412   1.419       .  A
C2411      C2418   1.451       .  S
C2412      C2413   1.428       .  A
C2413      C2414   1.398       .  A
C2413      C2416   1.457       .  S
C2414      C2783   1.409       .  A
C2414      C2791   1.453       .  S
C2415      C2784   1.451       .  S
C2415      N2422   1.157       .  T
C2416      N2421   1.158       .  T
C2417      C2788   1.455   1_554  S
C2417      N2419   1.157       .  T
C2418      N2420   1.158       .  T
C2423      C2424   1.412       .  A
C2423      C2428   1.419       .  A
C2424      C2425   1.416       .  A
C2424      C2429   1.449       .  S
C2425      C2426   1.410       .  A
C2425      C2432   1.447       .  S
C2426      C2427   1.404       .  A
C2427      C2428   1.406       .  A
C2427      C2430   1.450       .  S
C2428      C2431   1.453       .  S
C2429      N2436   1.157       .  T
C2430      N2809   1.157       .  T
C2431      N2433   1.158       .  T
C2432      N2434   1.157       .  T
N2435      C2804   1.157       .  T
C2437      C2438   1.407       .  A
C2437      C2442   1.412       .  A
C2438      C2439   1.420       .  A
C2439      C2440   1.426       .  A
C2439      C2446   1.445       .  S
C2440      C2441   1.423       .  A
C2441      C2442   1.409       .  A
C2441      C2444   1.447       .  S
C2442      C2445   1.456       .  S
C2443      N2450   1.156       .  T
C2444      N2449   1.156       .  T
C2445      N2447   1.158       .  T
C2446      N2448   1.156       .  T
C2451      C2452   1.409       .  A
C2451      C2456   1.405       .  A
C2452      C2453   1.415       .  A
C2452      C2457   1.448       .  S
C2453      C2454   1.416       .  A
C2453      C2460   1.450       .  S
C2454      C2455   1.422       .  A
C2455      C2456   1.413       .  A
C2455      C2458   1.451   1_565  S
C2456      C2459   1.449       .  S
C2457      N2464   1.157       .  T
C2459      N2461   1.157       .  T
C2460      N2462   1.157       .  T
C2465      C2466   1.416       .  A
C2465      C2470   1.413       .  A
C2466      C2467   1.408       .  A
C2466      C2471   1.453       .  S
C2467      C2468   1.408       .  A
C2467      C2474   1.449       .  S
C2468      C2469   1.412       .  A
C2469      C2470   1.417       .  A
C2469      C2472   1.448       .  S
C2470      C2473   1.449       .  S
C2472      N2477   1.157       .  T
C2473      N2475   1.157       .  T
C2474      N2476   1.157       .  T
C2479      C2480   1.407       .  A
C2479      C2484   1.406       .  A
C2480      C2481   1.417       .  A
C2480      C2485   1.449       .  S
C2481      C2482   1.425       .  A
C2481      C2488   1.451   1_565  S
C2482      C2483   1.422       .  A
C2483      C2484   1.413       .  A
C2483      C2486   1.452       .  S
C2484      C2487   1.448       .  S
C2485      N2492   1.157   1_565  T
C2486      N2491   1.158       .  T
C2487      N2489   1.157       .  T
C2488      N2490   1.158       .  T
C2493      C2494   1.423       .  A
C2493      C2498   1.431       .  A
C2494      C2495   1.417       .  A
C2494      C2499   1.450       .  S
C2495      C2496   1.417       .  A
C2495      C2502   1.452       .  S
C2496      C2497   1.411       .  A
C2497      C2498   1.420       .  A
C2497      C2500   1.451       .  S
C2499      N2506   1.157       .  T
C2500      N2505   1.157       .  T
C2501      N2503   1.157       .  T
C2502      N2504   1.157       .  T
C2507      C2508   1.404       .  A
C2507      C2512   1.403       .  A
C2508      C2509   1.415       .  A
C2508      C2513   1.449       .  S
C2509      C2510   1.427       .  A
C2509      C2516   1.452       .  S
C2510      C2511   1.428       .  A
C2511      C2512   1.416       .  A
C2511      C2514   1.447       .  S
C2512      C2515   1.450       .  S
C2513      N2520   1.157       .  T
C2515      N2517   1.157       .  T
C2516      N2518   1.158   1_655  T
C2521      C2522   1.408       .  A
C2521      C2526   1.398       .  A
C2522      C2523   1.422       .  A
C2522      C2527   1.447       .  S
C2523      C2524   1.423       .  A
C2523      C2530   1.449   1_655  S
C2524      C2525   1.427       .  A
C2525      C2526   1.398       .  A
C2525      C2528   1.451       .  S
C2526      C2529   1.451       .  S
C2527      N2534   1.157       .  T
C2528      N2533   1.157       .  T
C2529      N2531   1.157       .  T
C2530      N2532   1.158       .  T
C2535      C2536   1.408       .  A
C2535      C2540   1.404       .  A
C2536      C2537   1.412       .  A
C2536      C2541   1.448       .  S
C2537      C2538   1.414       .  A
C2537      C2544   1.451       .  S
C2538      C2539   1.419       .  A
C2539      C2540   1.409       .  A
C2539      C2542   1.452       .  S
C2540      C2543   1.449       .  S
C2541      N2548   1.157       .  T
C2542      N2547   1.157       .  T
C2543      N2545   1.157       .  T
C2544      N2546   1.157       .  T
C2549      C2550   1.405       .  A
C2549      C2554   1.401       .  A
C2550      C2551   1.415       .  A
C2550      C2555   1.449       .  S
C2551      C2552   1.427       .  A
C2551      C2558   1.452       .  S
C2552      C2553   1.430       .  A
C2553      C2554   1.413       .  A
C2553      C2556   1.451       .  S
C2554      C2931   1.449       .  S
C2555      N2562   1.157       .  T
C2557      C2928   1.450       .  S
C2557      N2559   1.157       .  T
C2563      C2564   1.421       .  A
C2563      C2568   1.418       .  A
C2563      N2632   1.453       .  S
C2564      C2565   1.412       .  A
C2564      C2943   1.450       .  S
C2565      C2566   1.410       .  A
C2565      C2572   1.452       .  S
C2566      C2567   1.410       .  A
C2567      C2568   1.408       .  A
C2567      C2570   1.452       .  S
C2568      C2571   1.450       .  S
C2569      C2938   1.451       .  S
C2569      N2576   1.158       .  T
C2571      N2573   1.158       .  T
C2572      N2948   1.157       .  T
N2574      C2946   1.157       .  T
C2577      C2578   1.423       .  A
C2577      C2956   1.415       .  A
C2578      C2579   1.411       .  A
C2578      C2583   1.449       .  S
C2579      C2580   1.403       .  A
C2579      C2586   1.450       .  S
C2580      C2955   1.409       .  A
C2581      C2954   1.410       .  A
C2581      C2582   1.417       .  A
C2581      C2584   1.449       .  S
C2582      C2951   1.417       .  A
C2582      C2585   1.450       .  S
C2583      N2590   1.157       .  T
C2584      N2589   1.157       .  T
C2585      N2587   1.157       .  T
C2586      N2588   1.157       .  T
C2591      C2592   1.417       .  A
C2591      C2596   1.415       .  A
C2592      C2593   1.404       .  A
C2592      C2597   1.452       .  S
C2593      C2594   1.416       .  A
C2593      C2600   1.453       .  S
C2594      C2595   1.413       .  A
C2595      C2596   1.403       .  A
C2595      C2598   1.451       .  S
C2596      C2599   1.451       .  S
C2597      N2604   1.158       .  T
C2598      N2603   1.157       .  T
C2599      N2601   1.157       .  T
C2600      N2602   1.158       .  T
C2605      C2606   1.414       .  A
C2605      C2610   1.423       .  A
C2606      C2607   1.408       .  A
C2606      C2611   1.450       .  S
C2607      C2608   1.417       .  A
C2607      C2614   1.450       .  S
C2608      C2609   1.411       .  A
C2609      C2610   1.399       .  A
C2609      C2612   1.455       .  S
C2610      C2613   1.452       .  S
C2611      N2618   1.157       .  T
C2612      N2617   1.158       .  T
C2613      N2615   1.157       .  T
C2614      N2616   1.157       .  T
C2619      C2621   1.548       .  S
C2619      C2623   1.524       .  S
C2619      C2622   1.534       .  S
C2619      C2965   1.519       .  S
C2620      C2624   1.545       .  S
C2620      C2626   1.554       .  S
C2620      C2625   1.533       .  S
C2620      C2982   1.522       .  S
C2621      C2629   1.381       .  A
C2622      C2633   1.374       .  A
C2623      C2637   1.373       .  A
C2624      C2627   1.383       .  A
C2625      C2631   1.376       .  A
C2626      C2634   1.391       .  A
C2627      H2640   1.082       .  S
N2628      C2629   1.356       .  A
N2628      C2923   1.437       .  S
C2629      H2630   1.082       .  S
C2631      H2641   1.085       .  S
C2631      N2632   1.359       .  A
C2633      H2639   1.080       .  S
C2634      H2636   1.082       .  S
N2635      C2637   1.352       .  A
N2635      C2954   1.444       .  S
C2637      H2638   1.084       .  S
C2642      C2644   1.547       .  S
C2642      C2646   1.536       .  S
C2642      C2645   1.528       .  S
C2642      C2979   1.529       .  S
C2643      C2647   1.553       .  S
C2643      C2649   1.530       .  S
C2643      C2648   1.545       .  S
C2643      C2968   1.518       .  S
C2644      C2652   1.381       .  A
C2644      C2647   1.400       .  A
C2645      C2656   1.367       .  A
C2645      C2648   1.383       .  A
C2646      C2660   1.379       .  A
C2646      C2649   1.381       .  A
C2647      C2650   1.383       .  A
C2648      C2654   1.394       .  A
C2649      C2657   1.380       .  A
C2650      H2663   1.082       .  S
C2650      N2651   1.356       .  A
N2651      C2652   1.358       .  A
N2651      C2881   1.441       .  S
C2652      H2653   1.082       .  S
C2654      H2664   1.079       .  S
C2654      N2655   1.362       .  A
N2655      C2656   1.353       .  A
N2655      C2895   1.444       .  S
C2656      H2662   1.088       .  S
C2657      H2659   1.082       .  S
C2657      N2658   1.354       .  A
N2658      C2660   1.353       .  A
N2658      C2909   1.434       .  S
C2660      H2661   1.083       .  S
O2665      C2673   1.267       .  A
O2666      C2674   1.261       .  A
O2666     Co2686   1.965       .  S
O2667      C2675   1.262       .  A
O2667     Co2687   2.022       .  S
O2668      C2676   1.286   1_565  A
O2669      C2675   1.253       .  A
O2671      C2674   1.269       .  A
O2672      C2673   1.307       .  A
O2672     Co2687   2.140       .  S
C2673      C2951   1.505       .  S
C2674      C2926   1.506       .  S
C2675      C2839   1.485       .  S
O2677      C2690   1.262       .  A
O2678     Co2686   2.087   1_455  S
O2679      C2692   1.265   1_545  A
O2680      C2693   1.265       .  A
O2680     Co2688   1.977       .  S
O2681      C2693   1.270   1_545  A
O2682      C2692   1.303       .  A
O2682     Co2685   2.134   1_565  S
O2683      C2690   1.251       .  A
O2683     Co2688   1.959       .  S
O2684      C2691   1.280       .  A
O2684     Co2687   2.029       .  S
Co2687     O2689   2.037       .  S
C2690      C2940   1.470       .  S
C2692      C2867   1.521       .  S
C2693      C2856   1.513       .  S
O2694      C2702   1.231       .  A
O2695      C2703   1.261       .  A
O2695     Co2715   1.967       .  S
O2696      C2704   1.267       .  A
O2696     Co2716   2.019       .  S
O2697      C2705   1.288   1_565  A
O2697     Co2717   2.099       .  S
O2698      C2704   1.254       .  A
O2699     Co2714   1.992   1_545  S
O2700      C2703   1.273       .  A
O2701      C2702   1.284       .  A
O2701     Co2716   2.088       .  S
C2702      C2912   1.483       .  S
C2703      C2884   1.518       .  S
C2704      C2797   1.479       .  S
O2706      C2719   1.264   1_455  A
O2707     Co2715   2.091       .  S
O2708      C2721   1.272   1_545  A
O2709      C2722   1.255       .  A
O2709     Co2717   1.961       .  S
O2710      C2722   1.269   1_545  A
O2711      C2721   1.309       .  A
O2711     Co2714   2.116       .  S
O2712      C2719   1.244       .  A
O2712     Co2717   1.947       .  S
O2713      C2720   1.283       .  A
O2713     Co2716   2.037       .  S
Co2716     O2718   2.016       .  S
C2719      C2898   1.508       .  S
C2721      C2828   1.484       .  S
C2722      C2811   1.494       .  S
C2723      C2725   1.549       .  S
C2723      C2727   1.560       .  S
C2723      C2726   1.533       .  S
C2723      C2769   1.520       .  S
C2724      C2728   1.528       .  S
C2724      C2730   1.542       .  S
C2724      C2729   1.540       .  S
C2724      C2786   1.520       .  S
C2725      C2733   1.393       .  A
C2725      C2728   1.377       .  A
C2726      C2737   1.379       .  A
C2726      C2729   1.379       .  A
C2727      C2741   1.389       .  A
C2727      C2730   1.400       .  A
C2728      C2731   1.373       .  A
C2729      C2735   1.385       .  A
C2730      C2738   1.379       .  A
C2731      H2744   1.084       .  S
C2731      N2732   1.355       .  A
N2732      C2733   1.366       .  A
N2732      C2870   1.456       .  S
C2733      H2734   1.080       .  S
C2735      H2745   1.079       .  S
C2735      N2736   1.358       .  A
N2736      C2737   1.355       .  A
N2736      C2842   1.440       .  S
C2737      H2743   1.086       .  S
C2738      H2740   1.082       .  S
C2738      N2739   1.355       .  A
N2739      C2741   1.360       .  A
N2739      C2853   1.443       .  S
C2741      H2742   1.083       .  S
C2746      C2748   1.542       .  S
C2746      C2750   1.549       .  S
C2746      C2749   1.545       .  S
C2746      C2783   1.516       .  S
C2747      C2751   1.537       .  S
C2747      C2753   1.548       .  S
C2747      C2752   1.529       .  S
C2747      C2772   1.516       .  S
C2748      C2756   1.382       .  A
C2748      C2751   1.388       .  A
C2749      C2760   1.389       .  A
C2749      C2752   1.382       .  A
C2750      C2764   1.389       .  A
C2750      C2753   1.385       .  A
C2751      C2754   1.381       .  A
C2752      C2758   1.374       .  A
C2753      C2761   1.381       .  A
C2754      H2767   1.082       .  S
C2754      N2755   1.357       .  A
N2755      C2756   1.357       .  A
N2755      C2825   1.440       .  S
C2756      H2757   1.082       .  S
C2758      H2768   1.082       .  S
C2758      N2759   1.352       .  A
N2759      C2760   1.359       .  A
N2759      C2800   1.437       .  S
C2760      H2766   1.082       .  S
C2761      H2763   1.081       .  S
C2761      N2762   1.362       .  A
N2762      C2764   1.364       .  A
N2762      C2814   1.460       .  S
C2764      H2765   1.082       .  S
C2769      C2770   1.417       .  A
C2769      C2774   1.422       .  A
C2770      C2771   1.400       .  A
C2770      C2775   1.450       .  S
C2771      C2772   1.411       .  A
C2771      C2778   1.451       .  S
C2772      C2773   1.409       .  A
C2773      C2774   1.407       .  A
C2773      C2776   1.450       .  S
C2774      C2777   1.452       .  S
C2775      N2782   1.157       .  T
C2776      N2781   1.157       .  T
C2777      N2779   1.157       .  T
C2778      N2780   1.157       .  T
C2784      C2785   1.406   1_554  A
C2785      C2786   1.419       .  A
C2785      C2792   1.451       .  S
C2786      C2787   1.425       .  A
C2787      C2788   1.398       .  A
C2787      C2790   1.456       .  S
C2789      N2796   1.157       .  T
C2790      N2795   1.158       .  T
C2791      N2793   1.157       .  T
C2792      N2794   1.158       .  T
C2797      C2798   1.409       .  A
C2797      C2802   1.416       .  A
C2798      C2799   1.414       .  A
C2798      C2803   1.449       .  S
C2799      C2800   1.411       .  A
C2799      C2806   1.446       .  S
C2800      C2801   1.405       .  A
C2801      C2802   1.406       .  A
C2801      C2804   1.448       .  S
C2802      C2805   1.453       .  S
C2803      N2810   1.157       .  T
C2805      N2807   1.158       .  T
C2806      N2808   1.157       .  T
C2811      C2812   1.410       .  A
C2811      C2816   1.414       .  A
C2812      C2813   1.419       .  A
C2813      C2814   1.423       .  A
C2813      C2820   1.445       .  S
C2814      C2815   1.419       .  A
C2815      C2816   1.408       .  A
C2815      C2818   1.446       .  S
C2816      C2819   1.456       .  S
C2817      N2824   1.157       .  T
C2818      N2823   1.156       .  T
C2819      N2821   1.158       .  T
C2820      N2822   1.156       .  T
C2825      C2826   1.409       .  A
C2825      C2830   1.407       .  A
C2826      C2827   1.411       .  A
C2826      C2831   1.447       .  S
C2827      C2828   1.413       .  A
C2827      C2834   1.452       .  S
C2828      C2829   1.418       .  A
C2829      C2830   1.411       .  A
C2829      C2832   1.453   1_565  S
C2830      C2833   1.448       .  S
C2831      N2838   1.157       .  T
C2833      N2835   1.157       .  T
C2834      N2836   1.158       .  T
C2839      C2840   1.415       .  A
C2839      C2844   1.413       .  A
C2840      C2841   1.405       .  A
C2840      C2845   1.453       .  S
C2841      C2842   1.407       .  A
C2841      C2848   1.449       .  S
C2842      C2843   1.411       .  A
C2843      C2844   1.417       .  A
C2843      C2846   1.448       .  S
C2844      C2847   1.449       .  S
C2846      N2851   1.157       .  T
C2847      N2849   1.158       .  T
C2848      N2850   1.157       .  T
C2853      C2854   1.406       .  A
C2853      C2858   1.405       .  A
C2854      C2855   1.418       .  A
C2854      C2859   1.450       .  S
C2855      C2856   1.427       .  A
C2855      C2862   1.450   1_565  S
C2856      C2857   1.421       .  A
C2857      C2858   1.412       .  A
C2857      C2860   1.451       .  S
C2858      C2861   1.448       .  S
C2859      N2866   1.157   1_565  T
C2860      N2865   1.157       .  T
C2861      N2863   1.157       .  T
C2862      N2864   1.158       .  T
C2867      C2868   1.424       .  A
C2867      C2872   1.430       .  A
C2868      C2869   1.414       .  A
C2868      C2873   1.450       .  S
C2869      C2870   1.414       .  A
C2869      C2876   1.452       .  S
C2870      C2871   1.411       .  A
C2871      C2872   1.418       .  A
C2871      C2874   1.450       .  S
C2873      N2880   1.157       .  T
C2874      N2879   1.157       .  T
C2875      N2877   1.157       .  T
C2876      N2878   1.158       .  T
C2881      C2882   1.401       .  A
C2881      C2886   1.403       .  A
C2882      C2883   1.413       .  A
C2882      C2887   1.450       .  S
C2883      C2884   1.430       .  A
C2883      C2890   1.452       .  S
C2884      C2885   1.429       .  A
C2885      C2886   1.416       .  A
C2885      C2888   1.449       .  S
C2886      C2889   1.450       .  S
C2887      N2894   1.157       .  T
C2889      N2891   1.157       .  T
C2890      N2892   1.158   1_655  T
C2895      C2896   1.410       .  A
C2895      C2900   1.401       .  A
C2896      C2897   1.423       .  A
C2896      C2901   1.447       .  S
C2897      C2898   1.424       .  A
C2897      C2904   1.449   1_655  S
C2898      C2899   1.429       .  A
C2899      C2900   1.398       .  A
C2899      C2902   1.454       .  S
C2900      C2903   1.450       .  S
C2901      N2908   1.157       .  T
C2902      N2907   1.158       .  T
C2903      N2905   1.156       .  T
C2904      N2906   1.158       .  T
C2909      C2910   1.408       .  A
C2909      C2914   1.404       .  A
C2910      C2911   1.407       .  A
C2910      C2915   1.445       .  S
C2911      C2912   1.404       .  A
C2911      C2918   1.449       .  S
C2912      C2913   1.428       .  A
C2913      C2914   1.412       .  A
C2913      C2916   1.454       .  S
C2914      C2917   1.453       .  S
C2915      N2922   1.157       .  T
C2916      N2921   1.158       .  T
C2917      N2919   1.158       .  T
C2918      N2920   1.157       .  T
C2923      C2924   1.405       .  A
C2923      C2928   1.401       .  A
C2924      C2925   1.412       .  A
C2924      C2929   1.449       .  S
C2925      C2926   1.424       .  A
C2925      C2932   1.452       .  S
C2926      C2927   1.428       .  A
C2927      C2928   1.410       .  A
C2927      C2930   1.452       .  S
C2929      N2936   1.157       .  T
C2931      N2933   1.157       .  T
C2937      C2938   1.419   1_556  A
C2937      C2942   1.414       .  A
C2938      C2939   1.409       .  A
C2939      C2940   1.410   1_554  A
C2939      C2946   1.452       .  S
C2940      C2941   1.409       .  A
C2941      C2942   1.404       .  A
C2941      C2944   1.452       .  S
C2942      C2945   1.450       .  S
C2943      N2950   1.158       .  T
C2945      N2947   1.157       .  T
C2951      C2952   1.424       .  A
C2952      C2953   1.415   1_556  A
C2952      C2957   1.449   1_556  S
C2953      C2954   1.404   1_554  A
C2953      C2960   1.450       .  S
C2955      C2956   1.414       .  A
C2955      C2958   1.448       .  S
C2956      C2959   1.450       .  S
C2957      N2964   1.157       .  T
C2958      N2963   1.157       .  T
C2959      N2961   1.158       .  T
C2960      N2962   1.157       .  T
C2965      C2966   1.417       .  A
C2965      C2970   1.414       .  A
C2966      C2967   1.404       .  A
C2966      C2971   1.453       .  S
C2967      C2968   1.417       .  A
C2967      C2974   1.453       .  S
C2968      C2969   1.417       .  A
C2969      C2970   1.403       .  A
C2969      C2972   1.452       .  S
C2970      C2973   1.452       .  S
C2971      N2978   1.158       .  T
C2972      N2977   1.157       .  T
C2973      N2975   1.157       .  T
C2974      N2976   1.158       .  T
C2979      C2980   1.418       .  A
C2979      C2984   1.429       .  A
C2980      C2981   1.408       .  A
C2980      C2985   1.449       .  S
C2981      C2982   1.412       .  A
C2981      C2988   1.450       .  S
C2982      C2983   1.410       .  A
C2983      C2984   1.402       .  A
C2983      C2986   1.456       .  S
C2984      C2987   1.452       .  S
C2985      N2992   1.157       .  T
C2986      N2991   1.158       .  T
C2987      N2989   1.157       .  T
C2988      N2990   1.157       .  T
