geometry optimzed in LAMMPS
_audit_creation_date              2020-11-30 
_audit_creation_method            'lammps2cif' 
_symmetry_space_group_name_H-M    'P1' 
_symmetry_Int_Tables_number       1 
_symmetry_cell_setting            triclinic 
loop_ 
_symmetry_equiv_pos_as_xyz 
  x,y,z 
_cell_length_a                    36.73107632 
_cell_length_b                    36.62164244232451 
_cell_length_c                    92.67790036369556 
_cell_angle_alpha                 89.91815357815864 
_cell_angle_beta                  90.07063119739985 
_cell_angle_gamma                 120.4859729025351 
loop_ 
_atom_site_label 
_atom_site_type_symbol 
_atom_site_fract_x 
_atom_site_fract_y 
_atom_site_fract_z 
_atom_site_charge 
N1          N  0.66252879  0.09901425  0.70317200    -0.03300
C2          C  0.65738393  0.12904285  0.71003738    -0.00800
C3          C  0.61785945  0.12301842  0.70685361    -0.23600
C4          C  0.59732364  0.08733305  0.69847061    -0.23800
C5          C  0.62489169  0.07257445  0.69666061    -0.00900
H6          H  0.60309093  0.13884983  0.71192993     0.12900
H7          H  0.56419918  0.07106536  0.69556865     0.13000
N8          N  0.94233792  0.14914112  0.66701139    -0.03300
C9          C  0.94547688  0.11745181  0.66045700    -0.00800
C10         C  0.98329535  0.12021138  0.66411982    -0.23600
C11         C  0.00502406  0.15535617  0.67261301    -0.23800
C12         C  0.97985014  0.17316614  0.67399309    -0.00900
H13         H  0.99616250  0.10198222  0.65951580     0.12900
H14         H  0.03752879  0.16892571  0.67605033     0.13000
N15         N  0.54322576  0.81748123  0.83240592    -0.03300
C16         C  0.50739924  0.78712444  0.82577729    -0.00800
C17         C  0.47360730  0.79227761  0.82903180    -0.23600
C18         C  0.48885972  0.82742268  0.83758198    -0.23800
C19         C  0.53154412  0.84278276  0.83933065    -0.00900
H20         H  0.44242564  0.77545755  0.82424200     0.12900
H21         H  0.47176697  0.84307254  0.84069905     0.13000
N22         N  0.76266381  0.76267645  0.87433118    -0.03300
C23         C  0.80040138  0.79222534  0.88003342    -0.00800
C24         C  0.83238483  0.78590360  0.87531188    -0.23600
C25         C  0.81371118  0.75028903  0.86686125    -0.23800
C26         C  0.77087162  0.73587276  0.86669262    -0.00900
H27         H  0.86467415  0.80189490  0.87916377     0.12900
H28         H  0.82887805  0.73341476  0.86298122     0.13000
N29         N  0.95120119  0.52760345  0.48189724    -0.03300
C30         C  0.97171590  0.57044001  0.48031774    -0.00800
C31         C  0.98073225  0.58111551  0.46594221    -0.23600
C32         C  0.96488404  0.54389936  0.45841935    -0.23800
C33         C  0.94613086  0.51131802  0.46835753    -0.00900
H34         H  0.99233620  0.61217433  0.46124777     0.12900
H35         H  0.96178852  0.54084449  0.44679909     0.13000
N36         N  0.97379335  0.36728479  0.56593778    -0.03300
C37         C  0.98023647  0.38137878  0.57980300    -0.00800
C38         C  0.96123738  0.34720853  0.58914751    -0.23600
C39         C  0.94337268  0.31116422  0.58087282    -0.23800
C40         C  0.95201174  0.32425545  0.56667029    -0.00900
H41         H  0.96486391  0.34823550  0.60076073     0.12900
H42         H  0.92994123  0.27908590  0.58486814     0.13000
N43         N  0.61162797  0.48515149  0.00075560    -0.03300
C44         C  0.61310963  0.45069224  0.99605636    -0.00800
C45         C  0.64834563  0.45124706  0.00160560    -0.23600
C46         C  0.67031846  0.48785967  0.00940712    -0.23800
C47         C  0.64767911  0.50851362  0.00851583    -0.00900
H48         H  0.65984887  0.43027569  0.99868239     0.12900
H49         H  0.70140095  0.49991315  0.01404282     0.13000
N50         N  0.33182003  0.43633272  0.03504902    -0.03300
C51         C  0.32947814  0.46832945  0.04158787    -0.00800
C52         C  0.29180832  0.46598972  0.03795815    -0.23600
C53         C  0.26958077  0.43068489  0.02949567    -0.23800
C54         C  0.29440496  0.41247629  0.02809372    -0.00900
H55         H  0.27918258  0.48429520  0.04267178     0.12900
H56         H  0.23701410  0.41729290  0.02616617     0.13000
N57         N  0.00194787  0.76101879  0.37170908    -0.03300
C58         C  0.99307838  0.79027518  0.37701215    -0.00800
C59         C  0.95630708  0.78492073  0.37095498    -0.23600
C60         C  0.94116581  0.75047456  0.36198760    -0.23800
C61         C  0.96901895  0.73567417  0.36287072    -0.00900
H62         H  0.93974826  0.80117199  0.37398994     0.12900
H63         H  0.91037894  0.73465844  0.35689700     0.13000
N64         N  0.27838421  0.81794600  0.33177614    -0.03300
C65         C  0.28635039  0.78877663  0.32581152    -0.00800
C66         C  0.32463845  0.79478588  0.33059415    -0.23600
C67         C  0.34159910  0.82955736  0.33944367    -0.23800
C68         C  0.31312933  0.84364644  0.33979597    -0.00900
H69         H  0.34068612  0.77874850  0.32675264     0.12900
H70         H  0.37342374  0.84579485  0.34372447     0.13000
N71         N  0.18061714  0.14300844  0.17275352    -0.03300
C72         C  0.14365484  0.11492951  0.16619378    -0.00800
C73         C  0.11190057  0.12239568  0.17031104    -0.23600
C74         C  0.12998078  0.15691099  0.17929948    -0.23800
C75         C  0.17231463  0.16967677  0.18040888    -0.00900
H76         H  0.08056256  0.10821548  0.16567988     0.12900
H77         H  0.11523426  0.17449180  0.18286610     0.13000
N78         N  0.40050230  0.08367566  0.21027162    -0.03300
C79         C  0.43784474  0.11266175  0.21635545    -0.00800
C80         C  0.47047728  0.10813955  0.21109334    -0.23600
C81         C  0.45269032  0.07460649  0.20170721    -0.23800
C82         C  0.40976644  0.05967906  0.20151242    -0.00900
H83         H  0.50282648  0.12428513  0.21488363     0.12900
H84         H  0.46856434  0.05946761  0.19693863     0.13000
N85         N  0.12380274  0.64000283  0.83757140    -0.03300
C86         C  0.15201545  0.63189431  0.83106923    -0.00800
C87         C  0.14354452  0.59160972  0.83443401    -0.23600
C88         C  0.10827424  0.57389333  0.84306341    -0.23800
C89         C  0.09629278  0.60389357  0.84470133    -0.00900
H90         H  0.15819328  0.57516442  0.82973841     0.12900
H91         H  0.09020183  0.54090194  0.84622229     0.13000
N92         N  0.17999267  0.91730652  0.87714103    -0.03300
C93         C  0.15092940  0.92440393  0.88355916    -0.00800
C94         C  0.15748210  0.96368830  0.87964772    -0.23600
C95         C  0.19222365  0.98182731  0.87081754    -0.23800
C96         C  0.20582210  0.95306629  0.86957547    -0.00900
H97         H  0.14208168  0.97957963  0.88419585     0.12900
H98         H  0.20896788  0.01450809  0.86726243     0.13000
N99         N  0.71790947  0.63138422  0.64097255    -0.03300
C100        C  0.72777724  0.63320204  0.62672796    -0.00800
C101        C  0.69131803  0.61464227  0.61850331    -0.23600
C102        C  0.65818472  0.60234354  0.62784888    -0.23800
C103        C  0.67513118  0.61326727  0.64154612    -0.00900
H104        H  0.68935404  0.61520058  0.60685708     0.12900
H105        H  0.62575948  0.59132878  0.62482074     0.13000
N106        N  0.87425637  0.60128607  0.72434206    -0.03300
C107        C  0.86398510  0.60164402  0.73845864    -0.00800
C108        C  0.89917544  0.62956484  0.74630763    -0.23600
C109        C  0.93272184  0.64545470  0.73699162    -0.23800
C110        C  0.91700303  0.62688636  0.72371945    -0.00900
H111        H  0.90121005  0.63342821  0.75791153     0.12900
H112        H  0.96568278  0.66399782  0.74003568     0.13000
N113        N  0.43900948  0.33155492  0.49785932    -0.03300
C114        C  0.46887961  0.32566846  0.49132824    -0.00800
C115        C  0.46336544  0.28651328  0.49475858    -0.23600
C116        C  0.42865376  0.26691603  0.50346371    -0.23800
C117        C  0.41381185  0.29459969  0.50508994    -0.00900
H118        H  0.48018118  0.27207889  0.49019993     0.12900
H119        H  0.41316404  0.23416904  0.50692573     0.13000
N120        N  0.50021991  0.60782751  0.54110206    -0.03300
C121        C  0.47372378  0.61714377  0.54829798    -0.00800
C122        C  0.48334360  0.65806545  0.54529145    -0.23600
C123        C  0.51740548  0.67500224  0.53618578    -0.23800
C124        C  0.52752879  0.64393251  0.53390469    -0.00900
H125        H  0.46974871  0.67510741  0.55029810     0.12900
H126        H  0.53567212  0.70785788  0.53288181     0.13000
N127        N  0.37630582  0.95265307  0.97299730    -0.03300
C128        C  0.39145007  0.95750828  0.95928624    -0.00800
C129        C  0.35822826  0.93912288  0.94959054    -0.23600
C130        C  0.32165159  0.92347911  0.95742060    -0.23800
C131        C  0.33359355  0.93268845  0.97168356    -0.00900
H132        H  0.36049706  0.94157861  0.93794588     0.12900
H133        H  0.29015149  0.91073469  0.95305618     0.13000
N134        N  0.54203538  0.92220633  0.05328834    -0.03300
C135        C  0.58505189  0.94532998  0.05352079    -0.00800
C136        C  0.59970166  0.96006963  0.06723016    -0.23600
C137        C  0.56490792  0.94448997  0.07593840    -0.23800
C138        C  0.52996996  0.92054676  0.06731237    -0.00900
H139        H  0.63229263  0.97672272  0.07076903     0.12900
H140        H  0.56539597  0.94625139  0.08760143     0.13000
N141        N  0.16345783  0.16355808  0.36986959    -0.03300
C142        C  0.13504838  0.12534796  0.37574587    -0.00800
C143        C  0.14109500  0.09375958  0.37022167    -0.23600
C144        C  0.17523256  0.11312445  0.36115573    -0.23800
C145        C  0.18928901  0.15599725  0.36140237    -0.00900
H146        H  0.12547581  0.06093401  0.37358378     0.12900
H147        H  0.19141453  0.09825663  0.35642263     0.13000
N148        N  0.10777801  0.38581525  0.33065377    -0.03300
C149        C  0.13797310  0.42248515  0.32439668    -0.00800
C150        C  0.13215051  0.45570269  0.32808303    -0.23600
C151        C  0.09669124  0.43909425  0.33651167    -0.23800
C152        C  0.08184546  0.39622480  0.33779568    -0.00900
H153        H  0.14887049  0.48751871  0.32371394     0.12900
H154        H  0.08060835  0.45554855  0.33988338     0.13000
N155        N  0.83529240  0.25904577  0.20658557    -0.03300
C156        C  0.80457275  0.26377365  0.21294611    -0.00800
C157        C  0.80924083  0.30245540  0.20910546    -0.23600
C158        C  0.84462760  0.32281014  0.20058896    -0.23800
C159        C  0.86042062  0.29588203  0.19943098    -0.00900
H160        H  0.79225343  0.31675093  0.21362942     0.12900
H161        H  0.85988059  0.35550518  0.19709104     0.13000
N162        N  0.77940894  0.97918119  0.16867872    -0.03300
C163        C  0.81322965  0.97944032  0.16249480    -0.00800
C164        C  0.81431027  0.94369008  0.16665467    -0.23600
C165        C  0.77904300  0.91942961  0.17486406    -0.23800
C166        C  0.75750996  0.94120023  0.17560570    -0.00900
H167        H  0.83522632  0.93345839  0.16250046     0.12900
H168        H  0.76819985  0.88748990  0.17855951     0.13000
N169        N  0.53006503  0.64305311  0.33299085    -0.03300
C170        C  0.49258859  0.63337467  0.32678809    -0.00800
C171        C  0.46009036  0.59590319  0.33225161    -0.23600
C172        C  0.47798209  0.58094958  0.34179528    -0.23800
C173        C  0.52095219  0.60957135  0.34178951    -0.00900
H174        H  0.42773361  0.57889306  0.32847394     0.12900
H175        H  0.46217384  0.54973352  0.34664891     0.13000
N176        N  0.75300680  0.92706445  0.36975272    -0.03300
C177        C  0.78971599  0.93402380  0.37588499    -0.00800
C178        C  0.82337811  0.97161927  0.37094152    -0.23600
C179        C  0.80691956  0.98942463  0.36197846    -0.23800
C180        C  0.76368811  0.96223945  0.36166980    -0.00900
H181        H  0.85554045  0.98712658  0.37490423     0.12900
H182        H  0.82391532  0.02149119  0.35783271     0.13000
N183        N  0.40844415  0.26365847  0.70913549    -0.03300
C184        C  0.44389488  0.27223130  0.71659878    -0.00800
C185        C  0.47690036  0.31200101  0.71306228    -0.23600
C186        C  0.46140617  0.32892771  0.70330460    -0.23800
C187        C  0.41928417  0.29910650  0.70123270    -0.00900
H188        H  0.50755871  0.32869224  0.71822384     0.12900
H189        H  0.47770827  0.36136131  0.69949337     0.13000
N190        N  0.19709172  0.98555507  0.66541192    -0.03300
C191        C  0.16102824  0.97699315  0.65835958    -0.00800
C192        C  0.12929396  0.93603033  0.66126074    -0.23600
C193        C  0.14628782  0.91850071  0.67014642    -0.23800
C194        C  0.18797956  0.94916583  0.67249128    -0.00900
H195        H  0.09871654  0.91906493  0.65605258     0.12900
H196        H  0.13122351  0.88546494  0.67323109     0.13000
N197        N  0.60622157  0.06236183  0.50252362    -0.03300
C198        C  0.61161937  0.09703268  0.49522012    -0.00800
C199        C  0.65104852  0.13152023  0.49823503    -0.23600
C200        C  0.67136323  0.11746935  0.50704722    -0.23800
C201        C  0.64363712  0.07491175  0.50927661    -0.00900
H202        H  0.66588843  0.16188221  0.49278909     0.12900
H203        H  0.70451979  0.13496213  0.50990042     0.13000
N204        N  0.32340993  0.84983442  0.54292345    -0.03300
C205        C  0.31977308  0.81410372  0.54890680    -0.00800
C206        C  0.28146522  0.77913871  0.54511613    -0.23600
C207        C  0.25996394  0.79368346  0.53714361    -0.23800
C208        C  0.28591807  0.83704123  0.53622472    -0.00900
H209        H  0.26820445  0.74732286  0.54934978     0.12900
H210        H  0.22742967  0.77522435  0.53362395     0.13000
N211        N  0.67647154  0.53325140  0.21046676    -0.03300
C212        C  0.66780525  0.49628263  0.21688533    -0.00800
C213        C  0.62855467  0.46377243  0.21268667    -0.23600
C214        C  0.61212152  0.48110430  0.20350996    -0.23800
C215        C  0.64178374  0.52371799  0.20242844    -0.00900
H216        H  0.61175996  0.43201573  0.21709920     0.12900
H217        H  0.58021032  0.46530470  0.19930878     0.13000
N218        N  0.95768373  0.74408755  0.16928034    -0.03300
C219        C  0.96832476  0.78208261  0.16326590    -0.00800
C220        C  0.00884055  0.81250513  0.16719460    -0.23600
C221        C  0.02420245  0.79243842  0.17559342    -0.23800
C222        C  0.99262819  0.75039120  0.17653494    -0.00900
H223        H  0.02690614  0.84452765  0.16307020     0.12900
H224        H  0.05663262  0.80587815  0.17910709     0.13000
N225        N  0.88696639  0.32863984  0.99958926    -0.03300
C226        C  0.84855158  0.31815455  0.99411306    -0.00800
C227        C  0.81686259  0.28244456  0.00076793    -0.23600
C228        C  0.83632831  0.26936308  0.01035877    -0.23800
C229        C  0.87931888  0.29730283  0.00916691    -0.00900
H230        H  0.78385717  0.26492777  0.99772006     0.12900
H231        H  0.82125103  0.23924220  0.01596005     0.13000
N232        N  0.10905540  0.61312352  0.03551210    -0.03300
C233        C  0.14381938  0.62001099  0.04303042    -0.00800
C234        C  0.17705290  0.66046645  0.04043804    -0.23600
C235        C  0.16205340  0.67961468  0.03142329    -0.23800
C236        C  0.12005106  0.65038959  0.02875885    -0.00900
H237        H  0.20709553  0.67621534  0.04602408     0.12900
H238        H  0.17820996  0.71309215  0.02887613     0.13000
N239        N  0.29130353  0.40403981  0.83587794    -0.03300
C240        C  0.29717356  0.43869847  0.82839393    -0.00800
C241        C  0.33689899  0.47287843  0.83118162    -0.23600
C242        C  0.35659416  0.45896244  0.84035559    -0.23800
C243        C  0.32840866  0.41654884  0.84290507    -0.00900
H244        H  0.35179763  0.50325322  0.82574387     0.12900
H245        H  0.38955654  0.47658625  0.84345376     0.13000
N246        N  0.00714799  0.18002935  0.87278417    -0.03300
C247        C  0.00292308  0.14406590  0.87884721    -0.00800
C248        C  0.96425114  0.10947864  0.87512046    -0.23600
C249        C  0.94323837  0.12433845  0.86705844    -0.23800
C250        C  0.96969972  0.16759311  0.86600386    -0.00900
H251        H  0.95046962  0.07770625  0.87944552     0.12900
H252        H  0.91059558  0.10620071  0.86362650     0.13000
O253        O  0.64024525  0.21527129  0.81539271    -0.80000
O254        O  0.76387633  0.40566279  0.86563113    -0.81600
O255        O  0.72055874  0.36429402  0.81706612    -0.78600
O256        O  0.76522856  0.29214715  0.84288518    -0.77000
O257        O  0.74156162  0.25237236  0.86356016    -0.78800
O258        O  0.66443684  0.37514768  0.81805058    -0.79700
O259        O  0.77724930  0.38264289  0.84438273    -0.81000
O260        O  0.70625490  0.27428724  0.81461972    -0.81300
Eu261      Eu  0.71463587  0.31592141  0.83677638     2.39200
O262        O  0.71463240  0.31370138  0.86225255    -0.88800
O263        O  0.64487189  0.28965166  0.82870206    -0.92400
C264        C  0.67658973  0.23878949  0.80938733     1.02300
C265        C  0.78825659  0.40903970  0.85499621     1.02100
C266        C  0.69948153  0.38156773  0.81248020     1.02000
C267        C  0.76866166  0.27041614  0.85327901     0.99900
H268        H  0.70560776  0.38658310  0.84335212     0.29600
O269        O  0.68808721  0.35755812  0.84644708    -1.01200
H270        H  0.68347774  0.22856699  0.84101189     0.29700
O271        O  0.67243288  0.24546946  0.84488693    -1.03700
O272        O  0.64934765  0.35924961  0.89308492    -0.81000
O273        O  0.53089854  0.16493866  0.84430139    -0.80500
O274        O  0.64111466  0.40420495  0.84625631    -0.78900
O275        O  0.71812396  0.28034997  0.89138418    -0.82300
O276        O  0.64918911  0.17037224  0.86294511    -0.80100
O277        O  0.57130026  0.29215726  0.81748466    -0.78800
O278        O  0.52693330  0.28462378  0.86579254    -0.80300
O279        O  0.56851039  0.20922926  0.89083792    -0.82200
O280        O  0.55161883  0.32619780  0.84553966    -0.79000
O281        O  0.62392969  0.19734875  0.88963968    -0.81600
O282        O  0.68109385  0.41732766  0.86668938    -0.77400
O283        O  0.56272361  0.22576668  0.81641121    -0.77400
O284        O  0.60956524  0.15745431  0.84243378    -0.77100
O285        O  0.72590829  0.34643248  0.89245711    -0.80600
O286        O  0.58346275  0.29992790  0.89354501    -0.80000
O287        O  0.51662565  0.18890827  0.86511768    -0.78300
Eu288      Eu  0.68872124  0.35558340  0.87194317     2.39800
Eu289      Eu  0.60260780  0.21925190  0.83670362     2.39600
Eu290      Eu  0.61834819  0.33139754  0.83807685     2.38400
Eu291      Eu  0.67270559  0.24344853  0.87043595     2.39900
Eu292      Eu  0.57637700  0.25903426  0.87155102     2.39800
O293        O  0.60366764  0.21835401  0.86203147    -0.92700
O294        O  0.61928614  0.32920287  0.86351108    -0.91600
C295        C  0.61263147  0.33539547  0.89888879     1.02500
C296        C  0.50710558  0.16077360  0.85517475     1.01200
C297        C  0.66292056  0.42791914  0.85695406     1.00600
C298        C  0.73237948  0.31709774  0.89727765     1.02600
C299        C  0.62704048  0.14664949  0.85234247     1.01500
C300        C  0.55594873  0.25502519  0.81168920     1.00300
C301        C  0.52457978  0.30816954  0.85582809     1.00400
C302        C  0.58854730  0.19056905  0.89504679     1.03000
H303        H  0.54663359  0.24934442  0.84278116     0.30400
O304        O  0.57538307  0.26065704  0.84606554    -1.04900
H305        H  0.64592185  0.28359743  0.89028756     0.32400
O306        O  0.64599382  0.28500266  0.87988654    -1.07400
O307        O  0.90588617  0.88537085  0.98363803    -0.80000
O308        O  0.98854103  0.08179593  0.03160356    -0.81600
O309        O  0.86583498  0.96898466  0.01154954    -0.78600
O310        O  0.97742328  0.03044439  0.98321864    -0.77000
O311        O  0.04198666  0.03510479  0.98263230    -0.78800
O312        O  0.84556699  0.92271790  0.03058851    -0.79700
O313        O  0.95177427  0.05928860  0.01039101    -0.81000
O314        O  0.90043133  0.94501564  0.98329270    -0.81300
Eu315      Eu  0.93825470  0.98798810  0.00444897     2.39200
O316        O  0.00770007  0.02878859  0.01317343    -0.88800
O317        O  0.90828157  0.91725042  0.01248663    -0.92400
C318        C  0.89338371  0.90942021  0.97799950     1.02300
C319        C  0.96971578  0.08665762  0.02062130     1.02100
C320        C  0.83878235  0.94461283  0.02113240     1.02000
C321        C  0.01350503  0.04203492  0.97726973     0.99900
H322        H  0.92055714  0.99889805  0.03328229     0.29600
O323        O  0.93701592  0.98686689  0.02986669    -1.01200
H324        H  0.97897967  0.95884254  0.98589588     0.29700
O325        O  0.97885923  0.95898617  0.99628555    -1.03700
O326        O  0.04882509  0.03184300  0.05986655    -0.81000
O327        O  0.97574792  0.83978044  0.00993235    -0.80500
O328        O  0.90076739  0.95512835  0.05845393    -0.78900
O329        O  0.09809682  0.07550188  0.01061380    -0.82300
O330        O  0.05462451  0.96059575  0.98423922    -0.80100
O331        O  0.85606850  0.84125080  0.03093701    -0.78800
O332        O  0.97848412  0.88638979  0.05971421    -0.80300
O333        O  0.08722670  0.94425015  0.03037790    -0.82200
O334        O  0.91416803  0.88240815  0.06010623    -0.79000
O335        O  0.10678265  0.98837056  0.01071337    -0.81600
O336        O  0.96142634  0.02017337  0.05956270    -0.77400
O337        O  0.88059828  0.82665691  0.01028297    -0.77400
O338        O  0.99402915  0.89560388  0.98334871    -0.77100
O339        O  0.07455154  0.09111862  0.03129997    -0.80600
O340        O  0.05368214  0.97194025  0.06038640    -0.80000
O341        O  0.01173275  0.86236584  0.03130656    -0.78300
Eu342      Eu  0.00695823  0.02826017  0.03858848     2.39800
Eu343      Eu  0.94953756  0.88867864  0.00431958     2.39600
Eu344      Eu  0.90656348  0.91578945  0.03789887     2.38400
Eu345      Eu  0.04861464  0.00052076  0.00467243     2.39900
Eu346      Eu  0.01761697  0.92953447  0.03865109     2.39800
O347        O  0.01822645  0.93081244  0.01333313    -0.92700
O348        O  0.97626773  0.95765911  0.04626276    -0.91600
C349        C  0.06024783  0.00731121  0.06582196     1.02500
C350        C  0.99700041  0.83661506  0.02050800     1.01200
C351        C  0.92486469  0.99152784  0.06442625     1.00600
C352        C  0.10081439  0.10105523  0.02070660     1.02600
C353        C  0.03059703  0.92387469  0.97845303     1.01500
C354        C  0.85308467  0.81660380  0.02043121     1.00300
C355        C  0.94256550  0.87558541  0.06561054     1.00400
C356        C  0.11230696  0.96503557  0.01987347     1.03000
H357        H  0.93618239  0.85835840  0.03332664     0.30400
O358        O  0.94790311  0.88704648  0.02986590    -1.04900
H359        H  0.07768722  0.01707706  0.03392600     0.32400
O360        O  0.04895866  0.00036693  0.03032054    -1.07400
O361        O  0.71267563  0.35913716  0.39251960    -0.80000
O362        O  0.63231439  0.16452786  0.34365853    -0.81600
O363        O  0.64276392  0.21319822  0.39157668    -0.78600
O364        O  0.75501120  0.27943386  0.36331483    -0.77000
O365        O  0.76909394  0.31978428  0.34291851    -0.78800
O366        O  0.57763411  0.20724471  0.39244804    -0.79700
O367        O  0.67280274  0.18904557  0.36406853    -0.81000
O368        O  0.72187121  0.30186839  0.39163420    -0.81300
Eu369      Eu  0.68185054  0.25810076  0.37080744     2.39200
O370        O  0.68102262  0.25856869  0.34539705    -0.88800
O371        O  0.64089207  0.28615895  0.37961350    -0.92400
C372        C  0.72794079  0.33656637  0.39745058     1.02300
C373        C  0.65440755  0.16135624  0.35396195     1.02100
C374        C  0.60615352  0.19975027  0.39739656     1.02000
C375        C  0.77908256  0.30120169  0.35265578     0.99900
H376        H  0.59928259  0.18816746  0.36614444     0.29600
O377        O  0.61127518  0.21695756  0.36271037    -1.01200
H378        H  0.73937277  0.34534005  0.36585065     0.29700
O379        O  0.71059536  0.32841368  0.36249685    -1.03700
O380        O  0.56294481  0.21052920  0.31750166    -0.81000
O381        O  0.64809095  0.40822952  0.36511567    -0.80500
O382        O  0.51712991  0.17248449  0.36448985    -0.78900
O383        O  0.71460357  0.28909880  0.31637472    -0.82300
O384        O  0.76049394  0.40336420  0.34320864    -0.80100
O385        O  0.56700284  0.28642880  0.39240899    -0.78800
O386        O  0.52408161  0.29131982  0.34422701    -0.80300
O387        O  0.63790636  0.36016040  0.31710382    -0.82200
O388        O  0.50870503  0.25216571  0.36496639    -0.79000
O389        O  0.70303582  0.36628182  0.31596276    -0.81600
O390        O  0.54109387  0.15785643  0.34370410    -0.77400
O391        O  0.62759840  0.35148129  0.39278708    -0.77400
O392        O  0.73762463  0.41765221  0.36428293    -0.77100
O393        O  0.65464758  0.22363485  0.31583717    -0.80600
O394        O  0.55755262  0.27019893  0.31723659    -0.80000
O395        O  0.60828879  0.38411258  0.34450241    -0.78300
Eu396      Eu  0.61100279  0.21690545  0.33721703     2.39800
Eu397      Eu  0.66953818  0.35625644  0.37150780     2.39600
Eu398      Eu  0.57041681  0.24543968  0.37168928     2.38400
Eu399      Eu  0.70908034  0.32859597  0.33698973     2.39900
Eu400      Eu  0.59822586  0.31489322  0.33776519     2.39800
O401        O  0.66820557  0.35629258  0.34606839    -0.92700
O402        O  0.57083537  0.24548969  0.34630297    -0.91600
C403        C  0.54905440  0.23384290  0.31221406     1.02500
C404        C  0.62676436  0.41165097  0.35463070     1.01200
C405        C  0.51331975  0.14837189  0.35371923     1.00600
C406        C  0.69077326  0.25223487  0.31066790     1.02600
C407        C  0.76427194  0.42804030  0.35380042     1.01500
C408        C  0.59153729  0.32337825  0.39799721     1.00300
C409        C  0.49884645  0.26928833  0.35459248     1.00400
C410        C  0.67443254  0.37377666  0.31118318     1.03000
H411        H  0.58257511  0.32723196  0.36680411     0.30400
O412        O  0.59912889  0.31540820  0.36323867    -1.04900
H413        H  0.63832200  0.28669332  0.31839239     0.32400
O414        O  0.63894107  0.28678354  0.32880526    -1.07400
O415        O  0.42213229  0.73818579  0.67742813    -0.80000
O416        O  0.23372852  0.62043418  0.72744105    -0.81600
O417        O  0.31159406  0.74439232  0.69999398    -0.78600
O418        O  0.37816669  0.69183725  0.72567006    -0.77000
O419        O  0.38217851  0.63137594  0.72529121    -0.78800
O420        O  0.27175304  0.72191738  0.67937618    -0.79700
O421        O  0.29508618  0.68493174  0.72761457    -0.81000
O422        O  0.40162692  0.75310372  0.69889519    -0.81300
Eu423      Eu  0.33364515  0.69133316  0.70547930     2.39200
O424        O  0.30384654  0.62042544  0.71288359    -0.88800
O425        O  0.33134348  0.69269920  0.68011980    -0.92400
C426        C  0.42702128  0.76311528  0.68809097     1.02300
C427        C  0.25988032  0.65663083  0.73321713     1.02100
C428        C  0.29021638  0.74887865  0.68968366     1.02000
C429        C  0.39048627  0.66707888  0.73088420     0.99900
H430        H  0.24708509  0.66335735  0.70170318     0.29600
O431        O  0.26273284  0.65110497  0.69772496    -1.01200
H432        H  0.40232895  0.67816422  0.69938525     0.29700
O433        O  0.37322257  0.66195041  0.69615359    -1.03700
O434        O  0.17947232  0.50679553  0.69882300    -0.81000
O435        O  0.37273734  0.62294229  0.64983857    -0.80500
O436        O  0.18990674  0.63373445  0.68054472    -0.78900
O437        O  0.30462292  0.54682239  0.72491969    -0.82300
O438        O  0.41282458  0.60681874  0.69458778    -0.80100
O439        O  0.30058641  0.69780779  0.65158137    -0.78800
O440        O  0.22452254  0.54991641  0.65111169    -0.80300
O441        O  0.29112692  0.49921071  0.67598620    -0.82200
O442        O  0.21626026  0.60773309  0.65192986    -0.79000
O443        O  0.33090325  0.52070074  0.69662398    -0.81600
O444        O  0.17203041  0.58931179  0.70003169    -0.77400
O445        O  0.36487290  0.70208973  0.64994324    -0.77400
O446        O  0.42978184  0.65256679  0.67556740    -0.77100
O447        O  0.24049586  0.54277527  0.72677828    -0.80600
O448        O  0.20076640  0.49187032  0.67748989    -0.80000
O449        O  0.31205789  0.55785440  0.64938654    -0.78300
Eu450      Eu  0.23275384  0.58030446  0.70579676     2.39800
Eu451      Eu  0.37050491  0.66353485  0.67072476     2.39600
Eu452      Eu  0.26075526  0.65231605  0.67223040     2.38400
Eu453      Eu  0.34275974  0.59058857  0.70387351     2.39900
Eu454      Eu  0.27018844  0.55240761  0.67085233     2.39800
O455        O  0.34062765  0.59288013  0.67861500    -0.92700
O456        O  0.23129562  0.58186850  0.68037037    -0.91600
C457        C  0.17464013  0.48218684  0.68808178     1.02500
C458        C  0.34806937  0.58619588  0.64418738     1.01200
C459        C  0.16431277  0.61073149  0.69065582     1.00600
C460        C  0.26912735  0.53489235  0.73134702     1.02600
C461        C  0.43768592  0.62994549  0.68428690     1.01500
C462        C  0.33664963  0.71046479  0.64542777     1.00300
C463        C  0.20884148  0.57218728  0.64635983     1.00400
C464        C  0.31236660  0.49432982  0.68617329     1.03000
H465        H  0.29880533  0.62331932  0.65247289     0.30400
O466        O  0.29979541  0.62299185  0.66287275    -1.04900
H467        H  0.25943516  0.52160052  0.69959373     0.32400
O468        O  0.27166699  0.55050532  0.69629025    -1.07400
O469        O  0.30540245  0.54682791  0.14714614    -0.80000
O470        O  0.42232410  0.73954014  0.19711889    -0.81600
O471        O  0.38139715  0.69500548  0.14787310    -0.78600
O472        O  0.42817126  0.62926310  0.17526890    -0.77000
O473        O  0.40512071  0.59074689  0.19619309    -0.78800
O474        O  0.32387978  0.70369852  0.14801409    -0.79700
O475        O  0.43830178  0.71694271  0.17627278    -0.81000
O476        O  0.37025497  0.60749902  0.14669660    -0.81300
Eu477      Eu  0.37613512  0.64962072  0.16836331     2.39200
O478        O  0.37541855  0.64881834  0.19377725    -0.88800
O479        O  0.30632431  0.62029004  0.16006647    -0.92400
C480        C  0.34188877  0.57155925  0.14133212     1.02300
C481        C  0.44797935  0.74284768  0.18698876     1.02100
C482        C  0.35938006  0.71049264  0.14270227     1.02000
C483        C  0.43248506  0.60928257  0.18601532     0.99900
H484        H  0.36481309  0.71943940  0.17379576     0.29600
O485        O  0.34774527  0.69052928  0.17709423    -1.01200
H486        H  0.34728259  0.56243180  0.17316378     0.29700
O487        O  0.33528188  0.57892762  0.17663451    -1.03700
O488        O  0.30735218  0.69347669  0.22321553    -0.81000
O489        O  0.19112317  0.49705685  0.17463363    -0.80500
O490        O  0.29798386  0.73403797  0.17553594    -0.78900
O491        O  0.37761762  0.61698786  0.22317438    -0.82300
O492        O  0.31119174  0.50473461  0.19623104    -0.80100
O493        O  0.23400869  0.62133351  0.14748973    -0.78800
O494        O  0.18423589  0.61156541  0.19569465    -0.80300
O495        O  0.23055402  0.54467433  0.22273958    -0.82200
O496        O  0.20839936  0.65115798  0.17502146    -0.79000
O497        O  0.29104896  0.54110411  0.22333624    -0.81600
O498        O  0.33780077  0.74940628  0.19610812    -0.77400
O499        O  0.22858368  0.55614884  0.14680758    -0.77400
O500        O  0.27232649  0.48864153  0.17542797    -0.77100
O501        O  0.38240612  0.68174866  0.22431455    -0.80600
O502        O  0.24243195  0.63274791  0.22380382    -0.80000
O503        O  0.17647596  0.52032855  0.19557037    -0.78300
Eu504      Eu  0.34716449  0.68942460  0.20260457     2.39800
Eu505      Eu  0.26525784  0.54970462  0.16812076     2.39600
Eu506      Eu  0.27788402  0.66124828  0.16839334     2.38400
Eu507      Eu  0.33454238  0.57880690  0.20214504     2.39900
Eu508      Eu  0.23607170  0.59016248  0.20221149     2.39800
O509        O  0.26489764  0.54967831  0.19355548    -0.92700
O510        O  0.27745782  0.66050878  0.19387682    -0.91600
C511        C  0.27091646  0.66888035  0.22898627     1.02500
C512        C  0.16667393  0.49307291  0.18531450     1.01200
C513        C  0.31927731  0.75869619  0.18610433     1.00600
C514        C  0.38958196  0.65294461  0.22930009     1.02600
C515        C  0.28931430  0.47922998  0.18594739     1.01500
C516        C  0.22146130  0.58477350  0.14167554     1.00300
C517        C  0.18088363  0.63294485  0.18518488     1.00400
C518        C  0.25491468  0.53269417  0.22844511     1.03000
H519        H  0.20814580  0.57858595  0.17316740     0.30400
O520        O  0.23672106  0.59068714  0.17671649    -1.04900
H521        H  0.30539732  0.61870404  0.22099851     0.32400
O522        O  0.30568782  0.61915253  0.21059060    -1.07400
O523        O  0.97112097  0.03137766  0.55663305    -0.80000
O524        O  0.85507978  0.83614364  0.50779130    -0.81600
O525        O  0.84966312  0.95174900  0.53018759    -0.78600
O526        O  0.89367941  0.87891247  0.55501903    -0.77000
O527        O  0.94990237  0.86828400  0.55369205    -0.78800
O528        O  0.87133526  0.98984064  0.50916528    -0.79700
O529        O  0.84007967  0.85965025  0.52861599    -0.81000
O530        O  0.90656911  0.97026318  0.55727138    -0.81300
Eu531      Eu  0.90042921  0.92818657  0.53569256     2.39200
O532        O  0.92868170  0.88762393  0.52668293    -0.88800
O533        O  0.94151606  0.99805771  0.52735917    -0.92400
C534        C  0.93468431  0.00654461  0.56244644     1.02300
C535        C  0.83053693  0.83253862  0.51833847     1.02100
C536        C  0.84542590  0.97293769  0.51981347     1.02000
C537        C  0.91433348  0.86079521  0.55909950     0.99900
H538        H  0.87040652  0.91638671  0.50677729     0.29600
O539        O  0.89909142  0.92839670  0.51019814    -1.01200
H540        H  0.96995766  0.95608210  0.55432563     0.29700
O541        O  0.97031795  0.95721378  0.54391881    -1.03700
O542        O  0.96746238  0.88536766  0.48014262    -0.81000
O543        O  0.08557897  0.07980550  0.52876684    -0.80500
O544        O  0.89600542  0.95946483  0.48107309    -0.78900
O545        O  0.98308317  0.84591963  0.52648456    -0.82300
O546        O  0.04084316  0.95511220  0.55623416    -0.80100
O547        O  0.95495172  0.06886365  0.51083291    -0.78800
O548        O  0.03909049  0.02855973  0.47987366    -0.80300
O549        O  0.09219638  0.97005075  0.50850813    -0.82200
O550        O  0.98047621  0.03549652  0.48019645    -0.79000
O551        O  0.06970771  0.93121842  0.52939486    -0.81600
O552        O  0.89299651  0.89548148  0.47987897    -0.77400
O553        O  0.99865293  0.08689568  0.53052759    -0.77400
O554        O  0.04817694  0.02110609  0.55702740    -0.77100
O555        O  0.93807044  0.82822077  0.50726872    -0.80600
O556        O  0.03251793  0.94589816  0.47971413    -0.80000
O557        O  0.09939056  0.05774352  0.50739399    -0.78300
Eu558      Eu  0.92851652  0.88840878  0.50130151     2.39800
Eu559      Eu  0.01134939  0.02813210  0.53576436     2.39600
Eu560      Eu  0.93977508  0.99894226  0.50203220     2.38400
Eu561      Eu  0.99844952  0.91649970  0.53494677     2.39900
Eu562      Eu  0.03866712  0.98849241  0.50126995     2.39800
O563        O  0.03871630  0.98698339  0.52666512    -0.92700
O564        O  0.96864955  0.95884021  0.49354271    -0.91600
C565        C  0.00388709  0.91009097  0.47436436     1.02500
C566        C  0.10976759  0.08411060  0.51794862     1.01200
C567        C  0.88512951  0.92371791  0.47491868     1.00600
C568        C  0.95993468  0.82032587  0.51635568     1.02600
C569        C  0.05444363  0.99181894  0.56210138     1.01500
C570        C  0.97599532  0.09358936  0.52141341     1.00300
C571        C  0.01466532  0.04064946  0.47433626     1.00400
C572        C  0.09692329  0.95028354  0.51926410     1.03000
H573        H  0.02666706  0.05853119  0.50668691     0.30400
O574        O  0.01046342  0.02969237  0.51015763    -1.04900
H575        H  0.01124570  0.90223799  0.50571283     0.32400
O576        O  0.99877091  0.91795779  0.50946786    -1.07400
C577        C  0.02183710  0.06341944  0.96303855    -0.01200
C578        C  0.03967557  0.05221766  0.95175840    -0.09200
C579        C  0.04327386  0.06892367  0.93785037    -0.18000
C580        C  0.02967636  0.09808917  0.93484433     0.04400
C581        C  0.01389714  0.11107863  0.94657157     0.18600
C582        C  0.00942951  0.09319394  0.96037198    -0.19400
C583        C  0.00192519  0.14136073  0.94442799    -0.20700
C584        C  0.00423125  0.15837508  0.93081274    -0.19200
C585        C  0.01735611  0.14465270  0.91887093     0.20000
C586        C  0.03024061  0.11423471  0.92065629     0.02100
C587        C  0.04073025  0.09968673  0.90805517    -0.14000
C588        C  0.03602651  0.11285869  0.89430149    -0.11700
C589        C  0.02244585  0.14214922  0.89264213     0.01600
C590        C  0.01481600  0.15910991  0.90502809    -0.23900
H591        H  0.04949714  0.02923940  0.95358122     0.09600
H592        H  0.05672705  0.05842095  0.92966332     0.13200
H593        H  0.99605923  0.10236421  0.96909739     0.11900
H594        H  0.99030689  0.15172856  0.95334342     0.13100
H595        H  0.99417260  0.18136380  0.92952628     0.12100
H596        H  0.05003483  0.07611841  0.90844649     0.09200
H597        H  0.04057842  0.09817955  0.88487049     0.12500
H598        H  0.00263054  0.18043187  0.90380463     0.14300
C599        C  0.95381853  0.19597111  0.86152456    -0.01200
C600        C  0.95717958  0.22739191  0.87094115    -0.09200
C601        C  0.93190598  0.24561446  0.86901790    -0.18000
C602        C  0.90255743  0.23293239  0.85749428     0.04400
C603        C  0.90277766  0.20442945  0.84714273     0.18600
C604        C  0.92792335  0.18601542  0.84931509    -0.19400
C605        C  0.87628695  0.19276597  0.83506362    -0.20700
C606        C  0.84816151  0.20733150  0.83332779    -0.19200
C607        C  0.84480098  0.23283370  0.84385752     0.20000
C608        C  0.87198388  0.24610058  0.85611298     0.02100
C609        C  0.86554236  0.26971957  0.86684578    -0.14000
C610        C  0.83264115  0.27839072  0.86566996    -0.11700
C611        C  0.80608426  0.26523929  0.85358066     0.01600
C612        C  0.81300504  0.24342205  0.84253470    -0.23900
H613        H  0.97713085  0.23565741  0.88041652     0.09600
H614        H  0.93514625  0.26865327  0.87692199     0.13200
H615        H  0.92559073  0.16201186  0.84190812     0.11900
H616        H  0.87673425  0.17152758  0.82702599     0.13100
H617        H  0.82764601  0.19711983  0.82396078     0.12100
H618        H  0.88420255  0.28025112  0.87657030     0.09200
H619        H  0.82748347  0.29498968  0.87437235     0.12500
H620        H  0.79195226  0.23249073  0.83329642     0.14300
C621        C  0.27558948  0.43799538  0.81481167    -0.01200
C622        C  0.25640421  0.46248672  0.81349279    -0.09200
C623        C  0.24825762  0.47348378  0.79986608    -0.18000
C624        C  0.26085150  0.46170982  0.78708186     0.04400
C625        C  0.27930525  0.43585153  0.78854572     0.18600
C626        C  0.28538872  0.42340335  0.80227995    -0.19400
C627        C  0.29438247  0.42503778  0.77638252    -0.20700
C628        C  0.29357191  0.44110264  0.76286178    -0.19200
C629        C  0.27653965  0.46741285  0.76107101     0.20000
C630        C  0.25836209  0.47676637  0.77302089     0.02100
C631        C  0.23969445  0.50179197  0.77038653    -0.14000
C632        C  0.24128679  0.51876986  0.75667691    -0.11700
C633        C  0.26187534  0.51181928  0.74520850     0.01600
C634        C  0.27864106  0.48534949  0.74744206    -0.23900
H635        H  0.24987127  0.47516627  0.82305612     0.09600
H636        H  0.23457218  0.49346545  0.79971012     0.13200
H637        H  0.30163702  0.40570095  0.80328777     0.11900
H638        H  0.30851502  0.40539358  0.77742332     0.13100
H639        H  0.30696944  0.43339327  0.75376548     0.12100
H640        H  0.22400623  0.50910479  0.77874321     0.09200
H641        H  0.22791143  0.53894624  0.75520405     0.12500
H642        H  0.29403353  0.47923160  0.73856470     0.14300
C643        C  0.48820090  0.31501069  0.85590223    -0.01200
C644        C  0.45928868  0.29967090  0.84448329    -0.09200
C645        C  0.42711650  0.30940236  0.84347873    -0.18000
C646        C  0.42365994  0.33616299  0.85370394     0.04400
C647        C  0.45328542  0.35177521  0.86528018     0.18600
C648        C  0.48457959  0.34039156  0.86643875    -0.19400
C649        C  0.45266486  0.38014224  0.87525717    -0.20700
C650        C  0.42483461  0.39512633  0.87356583    -0.19200
C651        C  0.39604097  0.38121552  0.86209214     0.20000
C652        C  0.39360747  0.35001767  0.85238973     0.02100
C653        C  0.36223454  0.33537699  0.84148754    -0.14000
C654        C  0.33751364  0.35411419  0.83940862    -0.11700
C655        C  0.34328643  0.38792338  0.84807552     0.01600
C656        C  0.37125250  0.40000295  0.85979362    -0.23900
H657        H  0.46203083  0.28048910  0.83614373     0.09600
H658        H  0.40652623  0.29695273  0.83424775     0.13200
H659        H  0.50754128  0.35308405  0.87512121     0.11900
H660        H  0.47499951  0.39212547  0.88412224     0.13100
H661        H  0.42644949  0.41845823  0.88112663     0.12100
H662        H  0.35699374  0.31040160  0.83412695     0.09200
H663        H  0.31611217  0.34427114  0.83028945     0.12500
H664        H  0.37563453  0.42600778  0.86659755     0.14300
C665        C  0.04705808  0.21485944  0.86757125    -0.01200
C666        C  0.05235777  0.22437992  0.85274392    -0.09200
C667        C  0.09133721  0.25472037  0.84704102    -0.18000
C668        C  0.12713244  0.27709449  0.85597134     0.04400
C669        C  0.12166397  0.26849617  0.87106923     0.18600
C670        C  0.08205558  0.23737051  0.87669485    -0.19400
C671        C  0.15591510  0.29083773  0.88043198    -0.20700
C672        C  0.19541987  0.32111721  0.87515101    -0.19200
C673        C  0.20204015  0.32949384  0.86032578     0.20000
C674        C  0.16809261  0.30757379  0.85047943     0.02100
C675        C  0.17684964  0.31698731  0.83558807    -0.14000
C676        C  0.21730655  0.34739202  0.83076221    -0.11700
C677        C  0.25055043  0.36944257  0.84053127     0.01600
C678        C  0.24247580  0.35993740  0.85531860    -0.23900
H679        H  0.02629422  0.20719242  0.84534081     0.09600
H680        H  0.09245596  0.25970161  0.83555244     0.13200
H681        H  0.07853744  0.23059858  0.88814985     0.11900
H682        H  0.15213991  0.28485169  0.89194467     0.13100
H683        H  0.22115192  0.33787136  0.88273284     0.12100
H684        H  0.15309962  0.30134211  0.82737925     0.09200
H685        H  0.22250397  0.35360440  0.81931937     0.12500
H686        H  0.26764496  0.37723642  0.86304661     0.14300
C687        C  0.14289746  0.59699197  0.05631894    -0.01200
C688        C  0.11464448  0.59152975  0.06739242    -0.09200
C689        C  0.12143944  0.58252139  0.08150709    -0.18000
C690        C  0.15672593  0.57831944  0.08490342     0.04400
C691        C  0.18252833  0.57936016  0.07328678     0.18600
C692        C  0.17591384  0.58943237  0.05923785    -0.19400
C693        C  0.21604931  0.57237325  0.07587181    -0.20700
C694        C  0.22562147  0.56601577  0.08982867    -0.19200
C695        C  0.20325396  0.56858549  0.10161492     0.20000
C696        C  0.16847708  0.57487462  0.09937798     0.02100
C697        C  0.14915480  0.58056448  0.11172490    -0.14000
C698        C  0.16536495  0.58234573  0.12558140    -0.11700
C699        C  0.19981583  0.57642515  0.12759688     0.01600
C700        C  0.21740358  0.56778469  0.11563936    -0.23900
H701        H  0.08899823  0.59739604  0.06535272     0.09600
H702        H  0.09922718  0.58002110  0.08960641     0.13200
H703        H  0.19782955  0.59362759  0.05067967     0.11900
H704        H  0.23545435  0.57249519  0.06705045     0.13100
H705        H  0.25217434  0.56128449  0.09146689     0.12100
H706        H  0.12315393  0.58625396  0.11092417     0.09200
H707        H  0.15154435  0.58928397  0.13473321     0.12500
H708        H  0.24457261  0.56395081  0.11717915     0.14300
C709        C  0.09052243  0.66583690  0.02604680    -0.01200
C710        C  0.06836483  0.66889676  0.03778008    -0.09200
C711        C  0.04751412  0.69164965  0.03669923    -0.18000
C712        C  0.04886709  0.71302547  0.02381016     0.04400
C713        C  0.06909075  0.70757484  0.01160672     0.18600
C714        C  0.09016043  0.68447672  0.01286752    -0.19400
C715        C  0.06956234  0.72668126  0.99844233    -0.20700
C716        C  0.05182940  0.75243237  0.99729035    -0.19200
C717        C  0.03409359  0.76060520  0.00936324     0.20000
C718        C  0.03227119  0.74081007  0.02278710     0.02100
C719        C  0.01598805  0.75144890  0.03484343    -0.14000
C720        C  0.00343982  0.78139841  0.03376332    -0.11700
C721        C  0.00553470  0.80119122  0.02062802     0.01600
C722        C  0.01988404  0.78988801  0.00831752    -0.23900
H723        H  0.06872086  0.65500567  0.04807832     0.09600
H724        H  0.03143115  0.69261445  0.04626813     0.13200
H725        H  0.10771293  0.68245607  0.00381045     0.11900
H726        H  0.08439752  0.72227448  0.98903022     0.13100
H727        H  0.05333411  0.76724801  0.98700401     0.12100
H728        H  0.01406765  0.73852615  0.04544287     0.09200
H729        H  0.99260576  0.78974783  0.04340070     0.12500
H730        H  0.02232366  0.80569416  0.99815636     0.14300
C731        C  0.96787109  0.12605406  0.01962151    -0.01200
C732        C  0.96579262  0.14657243  0.03206420    -0.09200
C733        C  0.95860448  0.18055079  0.03106633    -0.18000
C734        C  0.95342749  0.19518257  0.01749556     0.04400
C735        C  0.95890454  0.17628428  0.00491295     0.18600
C736        C  0.96593053  0.14211296  0.00608524    -0.19400
C737        C  0.95563397  0.19041232  0.99120209    -0.20700
C738        C  0.94480742  0.22146596  0.98966315    -0.19200
C739        C  0.93656093  0.23884181  0.00179180     0.20000
C740        C  0.94136850  0.22653565  0.01591311     0.02100
C741        C  0.93127465  0.24419290  0.02776164    -0.14000
C742        C  0.91420804  0.27035240  0.02560990    -0.11700
C743        C  0.90818748  0.28095752  0.01167547     0.01600
C744        C  0.92091282  0.26643485  0.99983869    -0.23900
H745        H  0.96795097  0.13518553  0.04264261     0.09600
H746        H  0.95643625  0.19414799  0.04110146     0.13200
H747        H  0.96875426  0.12716510  0.99638942     0.11900
H748        H  0.96035066  0.17651569  0.98157939     0.13100
H749        H  0.94130451  0.23080424  0.97888305     0.12100
H750        H  0.93397095  0.23651243  0.03878919     0.09200
H751        H  0.90370302  0.28066032  0.03484548     0.12500
H752        H  0.91513484  0.27371817  0.98902009     0.14300
C753        C  0.84190418  0.33193610  0.97989147    -0.01200
C754        C  0.81263724  0.34531435  0.97842220    -0.09200
C755        C  0.79890632  0.34940287  0.96479021    -0.18000
C756        C  0.81277977  0.33829639  0.95217568     0.04400
C757        C  0.84286171  0.32503091  0.95375902     0.18600
C758        C  0.85808595  0.32326063  0.96752313    -0.19400
C759        C  0.85537885  0.31096185  0.94172818    -0.20700
C760        C  0.83674197  0.30736127  0.92830354    -0.19200
C761        C  0.80636802  0.31933599  0.92646528     0.20000
C762        C  0.79567669  0.33708417  0.93821385     0.02100
C763        C  0.76743288  0.35184211  0.93555745    -0.14000
C764        C  0.74828840  0.34640441  0.92211188    -0.11700
C765        C  0.75622498  0.32579436  0.91091770     0.01600
C766        C  0.78591252  0.31296819  0.91304732    -0.23900
H767        H  0.79914905  0.35110591  0.98792320     0.09600
H768        H  0.77541109  0.35872291  0.96456669     0.13200
H769        H  0.87977219  0.31154980  0.96872741     0.11900
H770        H  0.87831930  0.30083676  0.94284427     0.13100
H771        H  0.84575884  0.29463668  0.91934323     0.12100
H772        H  0.75949941  0.36774791  0.94365266     0.09200
H773        H  0.72597092  0.35717135  0.92060507     0.12500
H774        H  0.79299434  0.29799756  0.90426991     0.14300
C775        C  0.92142155  0.37212863  0.00120805    -0.01200
C776        C  0.91294684  0.40555865  0.00146726    -0.09200
C777        C  0.94310774  0.44598777  0.00625093    -0.18000
C778        C  0.98309178  0.45461424  0.01118243     0.04400
C779        C  0.99301195  0.42196101  0.00975872     0.18600
C780        C  0.96243535  0.38141380  0.00476285    -0.19400
C781        C  0.03294473  0.42950393  0.01384507    -0.20700
C782        C  0.06280247  0.46832502  0.01970920    -0.19200
C783        C  0.05328858  0.50041493  0.02189969     0.20000
C784        C  0.01328433  0.49406786  0.01769336     0.02100
C785        C  0.00488110  0.52700102  0.02060826    -0.14000
C786        C  0.03525225  0.56491019  0.02706735    -0.11700
C787        C  0.07532004  0.57181243  0.03079021     0.01600
C788        C  0.08368552  0.53887531  0.02826573    -0.23900
H789        H  0.88189404  0.40004036  0.99878619     0.09600
H790        H  0.93375177  0.46952422  0.00632968     0.13200
H791        H  0.97027195  0.35670990  0.00419189     0.11900
H792        H  0.04098076  0.40498254  0.01267438     0.13100
H793        H  0.09331758  0.47297150  0.02282636     0.12100
H794        H  0.97490855  0.52426633  0.01815525     0.09200
H795        H  0.02689277  0.58869626  0.02909020     0.12500
H796        H  0.11455342  0.54362596  0.03088195     0.14300
C797        C  0.00388847  0.71746752  0.17917114    -0.01200
C798        C  0.00685363  0.69529338  0.16737734    -0.09200
C799        C  0.02974643  0.67439088  0.16838806    -0.18000
C800        C  0.05081210  0.67536939  0.18130709     0.04400
C801        C  0.04441276  0.69463185  0.19360682     0.18600
C802        C  0.02157891  0.71589302  0.19238760    -0.19400
C803        C  0.06272515  0.69449210  0.20684853    -0.20700
C804        C  0.08883534  0.67731927  0.20801082    -0.19200
C805        C  0.09854598  0.66123625  0.19584883     0.20000
C806        C  0.07948247  0.65979263  0.18231298     0.02100
C807        C  0.09213633  0.64547701  0.17019591    -0.14000
C808        C  0.12396259  0.63538041  0.17134101    -0.11700
C809        C  0.14324623  0.63774453  0.18462374     0.01600
C810        C  0.12915950  0.64899299  0.19696023    -0.23900
H811        H  0.99385591  0.69663217  0.15701791     0.09600
H812        H  0.03146786  0.65888238  0.15875682     0.13200
H813        H  0.01969018  0.73341366  0.20149695     0.11900
H814        H  0.05752539  0.70857397  0.21631977     0.13100
H815        H  0.10311683  0.67845562  0.21836617     0.12100
H816        H  0.07960011  0.64380074  0.15954278     0.09200
H817        H  0.13426626  0.62651436  0.16169208     0.12500
H818        H  0.14429242  0.65125660  0.20724396     0.14300
C819        C  0.94722835  0.78759195  0.15051381    -0.01200
C820        C  0.94466283  0.82424851  0.14905468    -0.09200
C821        C  0.93623099  0.83594846  0.13563751    -0.18000
C822        C  0.93188961  0.81205834  0.12307772     0.04400
C823        C  0.93234865  0.77367208  0.12481205     0.18600
C824        C  0.93870259  0.76122348  0.13852033    -0.19400
C825        C  0.92968148  0.74955988  0.11271956    -0.20700
C826        C  0.92947422  0.76411868  0.09885664    -0.19200
C827        C  0.93072296  0.80259485  0.09672728     0.20000
C828        C  0.93001333  0.82620760  0.10880863     0.02100
C829        C  0.92919084  0.86380420  0.10602507    -0.14000
C830        C  0.93128666  0.87839029  0.09191568    -0.11700
C831        C  0.93470184  0.85640613  0.08015243     0.01600
C832        C  0.93389288  0.81824448  0.08259033    -0.23900
H833        H  0.95137904  0.84509229  0.15821118     0.09600
H834        H  0.93600012  0.86523853  0.13530034     0.13200
H835        H  0.94135806  0.73315558  0.13957448     0.11900
H836        H  0.92976614  0.72016752  0.11396134     0.13100
H837        H  0.92922867  0.74555462  0.08972046     0.12100
H838        H  0.92739623  0.88287828  0.11452425     0.09200
H839        H  0.93187318  0.90797365  0.09021050     0.12500
H840        H  0.93626922  0.80103409  0.07347350     0.14300
C841        C  0.68368473  0.39942181  0.29787958    -0.01200
C842        C  0.70727066  0.39602566  0.28662745    -0.09200
C843        C  0.71254510  0.41741365  0.27354339    -0.18000
C844        C  0.69455945  0.44327134  0.27138344     0.04400
C845        C  0.67290264  0.44846202  0.28320763     0.18600
C846        C  0.66741367  0.42640397  0.29617440    -0.19400
C847        C  0.65559294  0.47462682  0.28191351    -0.20700
C848        C  0.65731141  0.49414663  0.26887978    -0.19200
C849        C  0.67593909  0.48758883  0.25676063     0.20000
C850        C  0.69563493  0.46277417  0.25783615     0.02100
C851        C  0.71305266  0.45651459  0.24508171    -0.14000
C852        C  0.70751163  0.47090745  0.23168360    -0.11700
C853        C  0.68620424  0.49342514  0.23070994     0.01600
C854        C  0.67229536  0.50332824  0.24334886    -0.23900
H855        H  0.72044624  0.37557012  0.28776288     0.09600
H856        H  0.73028554  0.41263314  0.26526135     0.13200
H857        H  0.64984734  0.42981669  0.30495113     0.11900
H858        H  0.63961480  0.47916906  0.29095744     0.13100
H859        H  0.64245099  0.51318615  0.26812850     0.12100
H860        H  0.72883715  0.43847317  0.24499060     0.09200
H861        H  0.71784370  0.46242914  0.22196179     0.12500
H862        H  0.65487181  0.51990687  0.24253064     0.14300
C863        C  0.47159806  0.60735009  0.18677053    -0.01200
C864        C  0.48603852  0.59572236  0.17465673    -0.09200
C865        C  0.52093348  0.59017534  0.17565661    -0.18000
C866        C  0.54280989  0.59665825  0.18886838     0.04400
C867        C  0.53000247  0.61190046  0.20079581     0.18600
C868        C  0.49428070  0.61640129  0.19971741    -0.19400
C869        C  0.55204082  0.62115509  0.21387189    -0.20700
C870        C  0.58457911  0.61260159  0.21572410    -0.19200
C871        C  0.59515998  0.59364552  0.20466164     0.20000
C872        C  0.57536112  0.58655149  0.19091795     0.02100
C873        C  0.58653886  0.56639871  0.18023688    -0.14000
C874        C  0.61246273  0.54984316  0.18358282    -0.11700
C875        C  0.62933354  0.55422612  0.19743381     0.01600
C876        C  0.62254940  0.57826467  0.20767394    -0.23900
H877        H  0.46929590  0.58937702  0.16449071     0.09600
H878        H  0.52967390  0.58028377  0.16596389     0.13200
H879        H  0.48375842  0.62652868  0.20901915     0.11900
H880        H  0.54313549  0.63380071  0.22288912     0.13100
H881        H  0.59994524  0.61865877  0.22615648     0.12100
H882        H  0.57333068  0.56016233  0.16952268     0.09200
H883        H  0.61690105  0.53083957  0.17560907     0.12500
H884        H  0.63465149  0.58075041  0.21853323     0.14300
C885        C  0.71852135  0.56541061  0.20619158    -0.01200
C886        C  0.73126383  0.60844342  0.20655981    -0.09200
C887        C  0.76980168  0.63882674  0.20043811    -0.18000
C888        C  0.79668611  0.62688092  0.19355608     0.04400
C889        C  0.78399095  0.58322437  0.19359164     0.18600
C890        C  0.74548022  0.55324432  0.19988535    -0.19400
C891        C  0.80941317  0.56952545  0.18711996    -0.20700
C892        C  0.84758384  0.59834126  0.18068885    -0.19200
C893        C  0.86116424  0.64159264  0.18042100     0.20000
C894        C  0.83562294  0.65644839  0.18666376     0.02100
C895        C  0.85022895  0.70023116  0.18570616    -0.14000
C896        C  0.88916597  0.72811939  0.17939943    -0.11700
C897        C  0.91511426  0.71368036  0.17378285     0.01600
C898        C  0.90048793  0.67016117  0.17412786    -0.23900
H899        H  0.71112122  0.61858103  0.21143135     0.09600
H900        H  0.77746808  0.67133081  0.20115243     0.13200
H901        H  0.73550115  0.51988112  0.19936914     0.11900
H902        H  0.79976801  0.53621887  0.18708147     0.13100
H903        H  0.86666562  0.58669119  0.17590223     0.12100
H904        H  0.83254827  0.71402156  0.18988444     0.09200
H905        H  0.89983706  0.76164125  0.17940037     0.12500
H906        H  0.91991817  0.65854504  0.16966987     0.14300
C907        C  0.34542301  0.73519299  0.63197206    -0.01200
C908        C  0.33319355  0.76550877  0.63066313    -0.09200
C909        C  0.33692380  0.78573646  0.61750757    -0.18000
C910        C  0.35170631  0.77506046  0.60502492     0.04400
C911        C  0.36464756  0.74461667  0.60647196     0.18600
C912        C  0.36261163  0.72600022  0.61997212    -0.19400
C913        C  0.37715857  0.73113699  0.59428768    -0.20700
C914        C  0.37443421  0.74514376  0.58056655    -0.19200
C915        C  0.36068066  0.77421056  0.57874693     0.20000
C916        C  0.35131543  0.79128478  0.59101815     0.02100
C917        C  0.34004167  0.82243777  0.58866175    -0.14000
C918        C  0.33399517  0.83282774  0.57472634    -0.11700
C919        C  0.33944461  0.81303892  0.56270591     0.01600
C920        C  0.35407979  0.78472001  0.56473710    -0.23900
H921        H  0.31998774  0.77310795  0.63983860     0.09600
H922        H  0.32597026  0.80800964  0.61731107     0.13200
H923        H  0.37164021  0.70211214  0.62091347     0.11900
H924        H  0.38716545  0.70802999  0.59530048     0.13100
H925        H  0.38229942  0.73248208  0.57129356     0.12100
H926        H  0.33445988  0.83844394  0.59737099     0.09200
H927        H  0.32230907  0.85448974  0.57336354     0.12500
H928        H  0.35796140  0.76906909  0.55543875     0.14300
C929        C  0.27005367  0.86513457  0.53163703    -0.01200
C930        C  0.24881221  0.85755581  0.51849139    -0.09200
C931        C  0.22641831  0.87778327  0.51508125    -0.18000
C932        C  0.22329731  0.90531540  0.52502714     0.04400
C933        C  0.24516724  0.91315866  0.53838449     0.18600
C934        C  0.26935919  0.89404649  0.54137996    -0.19400
C935        C  0.24048660  0.93776004  0.54897956    -0.20700
C936        C  0.21235064  0.95229284  0.54695614    -0.19200
C937        C  0.18956922  0.94403978  0.53405296     0.20000
C938        C  0.19672003  0.92269180  0.52259256     0.02100
C939        C  0.17569229  0.91827498  0.50934252    -0.14000
C940        C  0.14549995  0.93045126  0.50802290    -0.11700
C941        C  0.13520691  0.94705434  0.51983334     0.01600
C942        C  0.15832588  0.95527195  0.53268504    -0.23900
H943        H  0.24840727  0.83467035  0.51099762     0.09600
H944        H  0.20978276  0.86916596  0.50493784     0.13200
H945        H  0.28480038  0.89893582  0.55176760     0.11900
H946        H  0.25708347  0.94400745  0.55917678     0.13100
H947        H  0.20777707  0.96937816  0.55563541     0.12100
H948        H  0.18142748  0.90491056  0.49986913     0.09200
H949        H  0.12829853  0.92448301  0.49796857     0.12500
H950        H  0.15090767  0.96902635  0.54176394     0.14300
C951        C  0.59340125  0.09525778  0.48084495    -0.01200
C952        C  0.57013772  0.11524664  0.47842590    -0.09200
C953        C  0.56458814  0.12591453  0.46440577    -0.18000
C954        C  0.58400805  0.11855175  0.45243278     0.04400
C955        C  0.60595829  0.09643770  0.45496429     0.18600
C956        C  0.60931735  0.08396214  0.46901309    -0.19400
C957        C  0.62728480  0.08986043  0.44367146    -0.20700
C958        C  0.62975887  0.10728421  0.43010822    -0.19200
C959        C  0.60999292  0.13073474  0.42739677     0.20000
C960        C  0.58515330  0.13499482  0.43830223     0.02100
C961        C  0.56400423  0.15703882  0.43472162    -0.14000
C962        C  0.56966550  0.17649410  0.42126349    -0.11700
C963        C  0.59669646  0.17492342  0.41094958     0.01600
C964        C  0.61596603  0.15106192  0.41397572    -0.23900
H965        H  0.55833394  0.12486039  0.48748484     0.09600
H966        H  0.54745141  0.14249415  0.46342294     0.13200
H967        H  0.62826966  0.06939236  0.47094870     0.11900
H968        H  0.64391147  0.07286328  0.44552334     0.13100
H969        H  0.64808425  0.10321193  0.42177504     0.12100
H970        H  0.54324937  0.16022134  0.44215489     0.09200
H971        H  0.55395465  0.19422898  0.41913038     0.12500
H972        H  0.63617355  0.14880775  0.40593559     0.14300
C973        C  0.65945685  0.04621907  0.51303762    -0.01200
C974        C  0.67692308  0.04838280  0.52664305    -0.09200
C975        C  0.70210331  0.03034979  0.52905858    -0.18000
C976        C  0.71217821  0.01132113  0.51764385     0.04400
C977        C  0.69287924  0.00792255  0.50398973     0.18600
C978        C  0.66596682  0.02430431  0.50194729    -0.19400
C979        C  0.70279635  0.99087171  0.49216700    -0.20700
C980        C  0.73327772  0.97927797  0.49335477    -0.19200
C981        C  0.75393776  0.98356735  0.50647371     0.20000
C982        C  0.74264651  0.99806895  0.51897850     0.02100
C983        C  0.76358148  0.00010164  0.53207508    -0.14000
C984        C  0.79579538  0.99024127  0.53249998    -0.11700
C985        C  0.80833770  0.97854487  0.51991027     0.01600
C986        C  0.78676916  0.97456512  0.50701840    -0.23900
H987        H  0.67264313  0.06581553  0.53525880     0.09600
H988        H  0.71525989  0.03407346  0.53972175     0.13200
H989        H  0.65324642  0.02356580  0.49130614     0.11900
H990        H  0.68814091  0.98811847  0.48175532     0.13100
H991        H  0.74138761  0.96768239  0.48384937     0.12100
H992        H  0.75609720  0.00965811  0.54210666     0.09200
H993        H  0.81204285  0.99332730  0.54259024     0.12500
H994        H  0.79603169  0.96489534  0.49729319     0.14300
C995        C  0.36325724  0.88602639  0.53832590    -0.01200
C996        C  0.39869608  0.90421480  0.54740143    -0.09200
C997        C  0.43872105  0.93392298  0.54213153    -0.18000
C998        C  0.44491582  0.94650610  0.52744996     0.04400
C999        C  0.40875778  0.92945620  0.51840996     0.18600
C1000       C  0.36871762  0.89988846  0.52387934    -0.19400
C1001       C  0.41291971  0.94078482  0.50379916    -0.20700
C1002       C  0.45247463  0.96793445  0.49785091    -0.19200
C1003       C  0.48895797  0.98471585  0.50636587     0.20000
C1004       C  0.48562366  0.97460702  0.52133031     0.02100
C1005       C  0.52325186  0.99281755  0.52948253    -0.14000
C1006       C  0.56228163  0.01988184  0.52311597    -0.11700
C1007       C  0.56585300  0.02997998  0.50834039     0.01600
C1008       C  0.52873396  0.01186381  0.50002383    -0.23900
H1009       H  0.39591515  0.89503391  0.55859306     0.09600
H1010       H  0.46431560  0.94572290  0.54977981     0.13200
H1011       H  0.34209317  0.88575356  0.51654730     0.11900
H1012       H  0.38539569  0.92802871  0.49685217     0.13100
H1013       H  0.45455298  0.97568034  0.48647753     0.12100
H1014       H  0.52362358  0.98732288  0.54088717     0.09200
H1015       H  0.58979991  0.03420341  0.53003489     0.12500
H1016       H  0.53061523  0.01913425  0.48863423     0.14300
C1017       C  0.21878812  0.93648747  0.67716921    -0.01200
C1018       C  0.21794522  0.92247232  0.69131737    -0.09200
C1019       C  0.23599744  0.89760340  0.69472569    -0.18000
C1020       C  0.25410949  0.88451923  0.68387636     0.04400
C1021       C  0.25669269  0.90075689  0.66969604     0.18600
C1022       C  0.23978270  0.92687936  0.66657173    -0.19400
C1023       C  0.27351397  0.88851574  0.65843246    -0.20700
C1024       C  0.28553803  0.85858561  0.66067911    -0.19200
C1025       C  0.28161929  0.84040855  0.67429788     0.20000
C1026       C  0.26734315  0.85405004  0.68626583     0.02100
C1027       C  0.26542831  0.83516008  0.69985467    -0.14000
C1028       C  0.27502227  0.80257498  0.70124109    -0.11700
C1029       C  0.28638720  0.78755095  0.68914192     0.01600
C1030       C  0.29051702  0.80747801  0.67581683    -0.23900
H1031       H  0.20110968  0.92877555  0.69961293     0.09600
H1032       H  0.23315922  0.88703309  0.70574917     0.13200
H1033       H  0.23949930  0.93659666  0.65552579     0.11900
H1034       H  0.27584030  0.90094032  0.64763652     0.13100
H1035       H  0.29697756  0.84872918  0.65156987     0.12100
H1036       H  0.25581033  0.84439210  0.70951252     0.09200
H1037       H  0.27170291  0.78782049  0.71167134     0.12500
H1038       H  0.29981561  0.79647751  0.66642944     0.14300
C1039       C  0.07829914  0.00018216  0.57576755    -0.01200
C1040       C  0.10835777  0.98769337  0.57722335    -0.09200
C1041       C  0.12881895  0.99204530  0.59037322    -0.18000
C1042       C  0.11860124  0.00761682  0.60274722     0.04400
C1043       C  0.08741958  0.01949724  0.60130858     0.18600
C1044       C  0.06874311  0.01716104  0.58776747    -0.19400
C1045       C  0.07345367  0.03130673  0.61355123    -0.20700
C1046       C  0.08763800  0.02868812  0.62727849    -0.19200
C1047       C  0.11799294  0.01660444  0.62903218     0.20000
C1048       C  0.13595145  0.00878665  0.61669089     0.02100
C1049       C  0.16951717  0.00099842  0.61890456    -0.14000
C1050       C  0.18118020  0.99603520  0.63281221    -0.11700
C1051       C  0.15958286  0.99819344  0.64490240     0.01600
C1052       C  0.12908597  0.01013162  0.64300257    -0.23900
H1053       H  0.11581272  0.97407198  0.56812930     0.09600
H1054       H  0.15085730  0.98082685  0.59072717     0.13200
H1055       H  0.04472154  0.02591898  0.58677877     0.11900
H1056       H  0.04972179  0.04043434  0.61258553     0.13100
H1057       H  0.07439090  0.03564035  0.63659463     0.12100
H1058       H  0.18664096  0.99763114  0.61005904     0.09200
H1059       H  0.20483846  0.98691082  0.63405267     0.12500
H1060       H  0.11235438  0.01200631  0.65234043     0.14300
C1061       C  0.38942285  0.31247102  0.69632086    -0.01200
C1062       C  0.39322023  0.32984804  0.68255672    -0.09200
C1063       C  0.37366218  0.35325388  0.67926021    -0.18000
C1064       C  0.35102462  0.36136876  0.68991537     0.04400
C1065       C  0.34566606  0.34174206  0.70363633     0.18600
C1066       C  0.36429158  0.31721745  0.70660592    -0.19400
C1067       C  0.32435130  0.34914718  0.71470038    -0.20700
C1068       C  0.31094819  0.37812323  0.71284007    -0.19200
C1069       C  0.31794877  0.39993930  0.69979320     0.20000
C1070       C  0.33623906  0.39054580  0.68788469     0.02100
C1071       C  0.34081555  0.41250121  0.67477867    -0.14000
C1072       C  0.33071941  0.44464036  0.67394418    -0.11700
C1073       C  0.31610897  0.45595499  0.68612079     0.01600
C1074       C  0.30855104  0.43256846  0.69884508    -0.23900
H1075       H  0.41314267  0.32707198  0.67454964     0.09600
H1076       H  0.37887429  0.36664377  0.66857394     0.13200
H1077       H  0.36228288  0.30478494  0.71739641     0.11900
H1078       H  0.31978811  0.33392763  0.72511809     0.13100
H1079       H  0.29627645  0.38458536  0.72185299     0.12100
H1080       H  0.35308474  0.40624342  0.66512667     0.09200
H1081       H  0.33635777  0.46212745  0.66395801     0.12500
H1082       H  0.29651586  0.44079416  0.70821783     0.14300
C1083       C  0.44437139  0.25204273  0.73042515    -0.01200
C1084       C  0.46604307  0.22989154  0.73158944    -0.09200
C1085       C  0.47772244  0.22192488  0.74514033    -0.18000
C1086       C  0.46974268  0.23779550  0.75795862     0.04400
C1087       C  0.44615611  0.25872468  0.75669021     0.18600
C1088       C  0.43294395  0.26469666  0.74306513    -0.19400
C1089       C  0.43859714  0.27642694  0.76888712    -0.20700
C1090       C  0.45659397  0.27666786  0.78212967    -0.19200
C1091       C  0.48184914  0.25836841  0.78360780     0.20000
C1092       C  0.48697971  0.23667276  0.77176770     0.02100
C1093       C  0.51076821  0.21659067  0.77416923    -0.14000
C1094       C  0.53141941  0.22097144  0.78734985    -0.11700
C1095       C  0.52943859  0.24575819  0.79851009     0.01600
C1096       C  0.50337614  0.26314383  0.79670347    -0.23900
H1097       H  0.47601798  0.22072989  0.72193988     0.09600
H1098       H  0.49541215  0.20577665  0.74516533     0.13200
H1099       H  0.41719707  0.28290880  0.74216914     0.11900
H1100       H  0.42035960  0.29210597  0.76802619     0.13100
H1101       H  0.45174126  0.29241881  0.79118525     0.12100
H1102       H  0.51456608  0.19792973  0.76597034     0.09200
H1103       H  0.55058689  0.20640701  0.78857639     0.12500
H1104       H  0.50055463  0.28125378  0.80543247     0.14300
C1105       C  0.22978026  0.02763797  0.66971530    -0.01200
C1106       C  0.27183001  0.03786074  0.67112036    -0.09200
C1107       C  0.30211192  0.07624943  0.67735685    -0.18000
C1108       C  0.29118105  0.10578040  0.68260449     0.04400
C1109       C  0.24887223  0.09616209  0.68058437     0.18600
C1110       C  0.21888357  0.05763204  0.67413872    -0.19400
C1111       C  0.23645397  0.12451681  0.68536828    -0.20700
C1112       C  0.26503067  0.16204089  0.69230625    -0.19200
C1113       C  0.30676961  0.17216530  0.69472646     0.20000
C1114       C  0.32044955  0.14416879  0.68990991     0.02100
C1115       C  0.36274947  0.15566888  0.69275137    -0.14000
C1116       C  0.39040280  0.19361828  0.69972273    -0.11700
C1117       C  0.37725850  0.22169718  0.70420038     0.01600
C1118       C  0.33506395  0.21037014  0.70179975    -0.23900
H1119       H  0.28131853  0.01583261  0.66755005     0.09600
H1120       H  0.33369650  0.08154852  0.67810687     0.13200
H1121       H  0.18635183  0.05001525  0.67319319     0.11900
H1122       H  0.20426736  0.11746699  0.68382571     0.13100
H1123       H  0.25432086  0.18319848  0.69587839     0.12100
H1124       H  0.37568036  0.13628513  0.68956311     0.09200
H1125       H  0.42298159  0.20191476  0.70109397     0.12500
H1126       H  0.32428899  0.23148571  0.70525395     0.14300
C1127       C  0.66017095  0.12398783  0.35431071    -0.01200
C1128       C  0.66310844  0.10507901  0.34156071    -0.09200
C1129       C  0.67492725  0.07415421  0.34194854    -0.18000
C1130       C  0.68351272  0.06067594  0.35520173     0.04400
C1131       C  0.67668038  0.07723628  0.36812171     0.18600
C1132       C  0.66588848  0.10895397  0.36755938    -0.19400
C1133       C  0.68160092  0.06278134  0.38155997    -0.20700
C1134       C  0.69426500  0.03296317  0.38248376    -0.19200
C1135       C  0.70407988  0.01818123  0.37002121     0.20000
C1136       C  0.69928331  0.03205335  0.35616991     0.02100
C1137       C  0.71290190  0.01867180  0.34402518    -0.14000
C1138       C  0.73177237  0.99385175  0.34567976    -0.11700
C1139       C  0.73595998  0.98015539  0.35935601     0.01600
C1140       C  0.72104730  0.99153396  0.37142185    -0.23900
H1141       H  0.65810000  0.11557038  0.33120281     0.09600
H1142       H  0.67729964  0.06144205  0.33173370     0.13200
H1143       H  0.66254469  0.12252259  0.37751613     0.11900
H1144       H  0.67588182  0.07485266  0.39144797     0.13100
H1145       H  0.69805292  0.02268052  0.39306736     0.12100
H1146       H  0.71155461  0.02891978  0.33322532     0.09200
H1147       H  0.74439967  0.98645221  0.33630021     0.12500
H1148       H  0.72569533  0.98219732  0.38206894     0.14300
C1149       C  0.79264656  0.91511513  0.38969674    -0.01200
C1150       C  0.76596832  0.91091832  0.40114692    -0.09200
C1151       C  0.77630063  0.90648840  0.41533289    -0.18000
C1152       C  0.81375004  0.90592432  0.41844383     0.04400
C1153       C  0.83795490  0.90519240  0.40660276     0.18600
C1154       C  0.82749670  0.91022393  0.39242180    -0.19400
C1155       C  0.87368531  0.90167899  0.40903926    -0.20700
C1156       C  0.88678099  0.90033579  0.42302051    -0.19200
C1157       C  0.86549290  0.90423965  0.43490057     0.20000
C1158       C  0.82884724  0.90748165  0.43280958     0.02100
C1159       C  0.81056795  0.91482108  0.44510613    -0.14000
C1160       C  0.82849161  0.91955083  0.45881439    -0.11700
C1161       C  0.86403494  0.91549446  0.46076646     0.01600
C1162       C  0.88183501  0.90692552  0.44883083    -0.23900
H1163       H  0.73874848  0.91437208  0.39926787     0.09600
H1164       H  0.75503209  0.90469621  0.42368120     0.13200
H1165       H  0.84796311  0.91294936  0.38354952     0.11900
H1166       H  0.89200928  0.90059708  0.40006571     0.13100
H1167       H  0.91483581  0.89805310  0.42453571     0.12100
H1168       H  0.78358565  0.91895814  0.44436224     0.09200
H1169       H  0.81469607  0.92666769  0.46793073     0.12500
H1170       H  0.91002994  0.90481617  0.45030393     0.14300
C1171       C  0.55032723  0.59413070  0.34500266    -0.01200
C1172       C  0.57199154  0.58867977  0.33358917    -0.09200
C1173       C  0.59141557  0.56466296  0.33535126    -0.18000
C1174       C  0.58902702  0.54441901  0.34862582     0.04400
C1175       C  0.56923357  0.55220653  0.36044790     0.18600
C1176       C  0.54991545  0.57669708  0.35851729    -0.19400
C1177       C  0.56697690  0.53372718  0.37390790    -0.20700
C1178       C  0.58200779  0.50591450  0.37570841    -0.19200
C1179       C  0.59904761  0.49533922  0.36403530     0.20000
C1180       C  0.60352814  0.51506424  0.35037760     0.02100
C1181       C  0.62004368  0.50266113  0.33884050    -0.14000
C1182       C  0.62887470  0.47012338  0.34053433    -0.11700
C1183       C  0.62295608  0.44977344  0.35382745     0.01600
C1184       C  0.60959702  0.46354078  0.36571322    -0.23900
H1185       H  0.57203700  0.60133388  0.32300618     0.09600
H1186       H  0.60677079  0.56141581  0.32595925     0.13200
H1187       H  0.53258968  0.58035973  0.36731521     0.11900
H1188       H  0.55244054  0.53993641  0.38301865     0.13100
H1189       H  0.57877114  0.49131284  0.38617200     0.12100
H1190       H  0.62489378  0.51618978  0.32819898     0.09200
H1191       H  0.63961954  0.46011738  0.33127393     0.12500
H1192       H  0.60477376  0.44759945  0.37600825     0.14300
C1193       C  0.48787252  0.65052518  0.31288770    -0.01200
C1194       C  0.45895713  0.66451416  0.31168098    -0.09200
C1195       C  0.44634895  0.67108672  0.29814167    -0.18000
C1196       C  0.46110313  0.66210026  0.28528629     0.04400
C1197       C  0.49101637  0.64846734  0.28661120     0.18600
C1198       C  0.50483096  0.64385060  0.30031798    -0.19400
C1199       C  0.50512941  0.63719010  0.27430179    -0.20700
C1200       C  0.48889362  0.63741352  0.26075178    -0.19200
C1201       C  0.45892321  0.64996981  0.25909867     0.20000
C1202       C  0.44564702  0.66394030  0.27124937     0.02100
C1203       C  0.41671834  0.67811441  0.26881530    -0.14000
C1204       C  0.40025669  0.67654229  0.25503977    -0.11700
C1205       C  0.41162879  0.66039388  0.24331121     0.01600
C1206       C  0.44140665  0.64769455  0.24538782    -0.23900
H1207       H  0.44480342  0.66881515  0.32129575     0.09600
H1208       H  0.42332205  0.68103440  0.29810903     0.13200
H1209       H  0.52619787  0.63167089  0.30123960     0.11900
H1210       H  0.52784944  0.62672390  0.27521665     0.13100
H1211       H  0.49951840  0.62721492  0.25150802     0.12100
H1212       H  0.40597955  0.69029371  0.27735494     0.09200
H1213       H  0.37716527  0.68637000  0.25367089     0.12500
H1214       H  0.45056793  0.63547889  0.23630111     0.14300
C1215       C  0.56405952  0.68617199  0.33583557    -0.01200
C1216       C  0.55541248  0.71944105  0.33646803    -0.09200
C1217       C  0.58483693  0.75921186  0.34199737    -0.18000
C1218       C  0.62422856  0.76733037  0.34740046     0.04400
C1219       C  0.63388449  0.73445531  0.34615620     0.18600
C1220       C  0.60432019  0.69486154  0.34024416    -0.19400
C1221       C  0.67254456  0.74076305  0.35125535    -0.20700
C1222       C  0.70164237  0.77881614  0.35772380    -0.19200
C1223       C  0.69304584  0.81176134  0.35918574     0.20000
C1224       C  0.65423496  0.80659853  0.35408614     0.02100
C1225       C  0.64729740  0.84096051  0.35596030    -0.14000
C1226       C  0.67835628  0.87934601  0.36200178    -0.11700
C1227       C  0.71756394  0.88516088  0.36639642     0.01600
C1228       C  0.72378988  0.85034339  0.36533075    -0.23900
H1229       H  0.52474972  0.71426640  0.33339144     0.09600
H1230       H  0.57524694  0.78254934  0.34229602     0.13200
H1231       H  0.61256804  0.67055604  0.33957348     0.11900
H1232       H  0.68019312  0.71589528  0.35036609     0.13100
H1233       H  0.73122847  0.78255769  0.36156937     0.12100
H1234       H  0.61840391  0.83941036  0.35266538     0.09200
H1235       H  0.67161995  0.90469861  0.36294214     0.12500
H1236       H  0.75380246  0.85389970  0.36850199     0.14300
C1237       C  0.83251208  0.99953648  0.14843017    -0.01200
C1238       C  0.80621309  0.99366538  0.13662203    -0.09200
C1239       C  0.82130101  0.99840672  0.12245536    -0.18000
C1240       C  0.86331918  0.00859028  0.11963719     0.04400
C1241       C  0.89080422  0.01817841  0.13166904     0.18600
C1242       C  0.87525641  0.01361547  0.14585028    -0.19400
C1243       C  0.93302830  0.02968126  0.12952030    -0.20700
C1244       C  0.94819404  0.03009216  0.11573649    -0.19200
C1245       C  0.92137124  0.01828940  0.10374466     0.20000
C1246       C  0.87857249  0.00765202  0.10546176     0.02100
C1247       C  0.85246212  0.99425245  0.09303770    -0.14000
C1248       C  0.86778223  0.98993103  0.07968873    -0.11700
C1249       C  0.90986015  0.00016867  0.07813445     0.01600
C1250       C  0.93672771  0.01533906  0.09013579    -0.23900
H1251       H  0.77294982  0.98222393  0.13832234     0.09600
H1252       H  0.79887394  0.99215687  0.11393898     0.13200
H1253       H  0.89568352  0.01781117  0.15492931     0.11900
H1254       H  0.95426146  0.03739138  0.13861921     0.13100
H1255       H  0.98082685  0.03827049  0.11451405     0.12100
H1256       H  0.81966280  0.98539632  0.09340837     0.09200
H1257       H  0.84649925  0.97812528  0.07053532     0.12500
H1258       H  0.96914344  0.02262044  0.08904402     0.14300
C1259       C  0.49193774  0.77863524  0.18764418    -0.01200
C1260       C  0.50579401  0.81218130  0.17787205    -0.09200
C1261       C  0.54845814  0.84376630  0.17719304    -0.18000
C1262       C  0.57899312  0.84200258  0.18604795     0.04400
C1263       C  0.56440639  0.80840247  0.19627217     0.18600
C1264       C  0.52111202  0.77754655  0.19712938    -0.19400
C1265       C  0.59333680  0.80468210  0.20510005    -0.20700
C1266       C  0.63660498  0.83210200  0.20344303    -0.19200
C1267       C  0.65207892  0.86442747  0.19308408     0.20000
C1268       C  0.62352757  0.87089779  0.18460697     0.02100
C1269       C  0.64095403  0.90498709  0.17466185    -0.14000
C1270       C  0.68461501  0.92944443  0.17247728    -0.11700
C1271       C  0.71242820  0.92096408  0.18011130     0.01600
C1272       C  0.69595084  0.88924750  0.19074561    -0.23900
H1273       H  0.48355162  0.81346920  0.17050057     0.09600
H1274       H  0.55673419  0.86821941  0.16923860     0.13200
H1275       H  0.51037612  0.75136854  0.20465996     0.11900
H1276       H  0.58249250  0.77941054  0.21299202     0.13100
H1277       H  0.65816120  0.82733814  0.21008465     0.12100
H1278       H  0.62162830  0.91287877  0.16813042     0.09200
H1279       H  0.69646058  0.95371145  0.16420677     0.12500
H1280       H  0.71726295  0.88284433  0.19687725     0.14300
C1281       C  0.78445423  0.24451763  0.22692572    -0.01200
C1282       C  0.74082241  0.22627259  0.22871177    -0.09200
C1283       C  0.72311564  0.21986258  0.24253589    -0.18000
C1284       C  0.74901228  0.23348808  0.25502254     0.04400
C1285       C  0.79317021  0.25064354  0.25309626     0.18600
C1286       C  0.81016120  0.25476099  0.23918803    -0.19400
C1287       C  0.82056028  0.26662520  0.26493731    -0.20700
C1288       C  0.80547780  0.26855548  0.27851615    -0.19200
C1289       C  0.76238267  0.25321386  0.28072019     0.20000
C1290       C  0.73324531  0.23356533  0.26917611     0.02100
C1291       C  0.68980101  0.21621950  0.27224122    -0.14000
C1292       C  0.67620113  0.22065153  0.28589740    -0.11700
C1293       C  0.70528410  0.24294944  0.29690479     0.01600
C1294       C  0.74835182  0.25842180  0.29430801    -0.23900
H1295       H  0.72061858  0.21905858  0.21934904     0.09600
H1296       H  0.68944133  0.20686654  0.24304554     0.13200
H1297       H  0.84411661  0.26999689  0.23780406     0.11900
H1298       H  0.85422508  0.27962572  0.26355247     0.13100
H1299       H  0.82781480  0.28286238  0.28730737     0.12100
H1300       H  0.66560207  0.19933727  0.26425896     0.09200
H1301       H  0.64276164  0.20804324  0.28766975     0.12500
H1302       H  0.77105594  0.27499866  0.30284632     0.14300
C1303       C  0.12405232  0.45485629  0.18616389    -0.01200
C1304       C  0.10942170  0.43433311  0.19945697    -0.09200
C1305       C  0.06749716  0.40198699  0.20120944    -0.18000
C1306       C  0.03815182  0.38996640  0.18975534     0.04400
C1307       C  0.05324886  0.41051165  0.17619765     0.18600
C1308       C  0.09618225  0.44176596  0.17440749    -0.19400
C1309       C  0.02490336  0.40151527  0.16478015    -0.20700
C1310       C  0.98162222  0.37479636  0.16681041    -0.19200
C1311       C  0.96570970  0.35506716  0.18014308     0.20000
C1312       C  0.99394768  0.36048395  0.19155132     0.02100
C1313       C  0.97645096  0.33736033  0.20444157    -0.14000
C1314       C  0.93271129  0.31321900  0.20638740    -0.11700
C1315       C  0.90513046  0.31160781  0.19565824     0.01600
C1316       C  0.92169597  0.33146455  0.18238216    -0.23900
H1317       H  0.13045067  0.44411142  0.20868463     0.09600
H1318       H  0.05852734  0.38858679  0.21187174     0.13200
H1319       H  0.10719136  0.45806216  0.16415999     0.11900
H1320       H  0.03606784  0.41683675  0.15439938     0.13100
H1321       H  0.96037329  0.37016376  0.15796439     0.12100
H1322       H  0.99575250  0.33798318  0.21331500     0.09200
H1323       H  0.92040752  0.29793901  0.21670441     0.12500
H1324       H  0.90029882  0.32991700  0.17401329     0.14300
C1325       C  0.82918594  0.21856789  0.20192581    -0.01200
C1326       C  0.81536161  0.18438583  0.21147432    -0.09200
C1327       C  0.80469091  0.14404987  0.20643870    -0.18000
C1328       C  0.80731314  0.13650916  0.19156526     0.04400
C1329       C  0.82204621  0.17146741  0.18199240     0.18600
C1330       C  0.83272180  0.21165387  0.18720140    -0.19400
C1331       C  0.82571053  0.16615850  0.16720699    -0.20700
C1332       C  0.81584235  0.12689130  0.16169613    -0.19200
C1333       C  0.80170723  0.09177219  0.17080350     0.20000
C1334       C  0.79642517  0.09586698  0.18582714     0.02100
C1335       C  0.78095550  0.05918106  0.19444433    -0.14000
C1336       C  0.77355213  0.02091491  0.18858712    -0.11700
C1337       C  0.78075756  0.01726417  0.17388345     0.01600
C1338       C  0.79386665  0.05283613  0.16500804    -0.23900
H1339       H  0.81252800  0.18871047  0.22287059     0.09600
H1340       H  0.79441947  0.11942112  0.21445088     0.13200
H1341       H  0.84252859  0.23752025  0.17961398     0.11900
H1342       H  0.83673161  0.19273193  0.15984955     0.13100
H1343       H  0.81968350  0.12407591  0.15023231     0.12100
H1344       H  0.77511036  0.05920992  0.20583271     0.09200
H1345       H  0.76385841  0.99441109  0.19585452     0.12500
H1346       H  0.79897082  0.05066355  0.15363756     0.14300
C1347       C  0.03659390  0.36709658  0.34105526    -0.01200
C1348       C  0.00850393  0.34744511  0.32958299    -0.09200
C1349       C  0.96516561  0.33127272  0.33135568    -0.18000
C1350       C  0.94853398  0.33442170  0.34476032     0.04400
C1351       C  0.97663983  0.35070386  0.35669698     0.18600
C1352       C  0.02036266  0.36766261  0.35468541    -0.19400
C1353       C  0.96108899  0.35146836  0.37042121    -0.20700
C1354       C  0.91835729  0.33735007  0.37248065    -0.19200
C1355       C  0.89044849  0.32413973  0.36074952     0.20000
C1356       C  0.90537036  0.32308521  0.34666973     0.02100
C1357       C  0.87713706  0.31315401  0.33498581    -0.14000
C1358       C  0.83613597  0.30511827  0.33717099    -0.11700
C1359       C  0.82123633  0.30549593  0.35105355     0.01600
C1360       C  0.84825320  0.31400505  0.36287798    -0.23900
H1361       H  0.02050024  0.34712085  0.31893529     0.09600
H1362       H  0.94554414  0.31720395  0.32198341     0.13200
H1363       H  0.04207362  0.38326841  0.36355655     0.11900
H1364       H  0.98218671  0.36331297  0.37962349     0.13100
H1365       H  0.90743077  0.33847050  0.38323834     0.12100
H1366       H  0.88642464  0.31327278  0.32394925     0.09200
H1367       H  0.81597028  0.29904555  0.32785957     0.12500
H1368       H  0.83726061  0.31533054  0.37361228     0.14300
C1369       C  0.24132859  0.50918954  0.24218017    -0.01200
C1370       C  0.20264405  0.47127553  0.24325972    -0.09200
C1371       C  0.18885513  0.45036716  0.25653552    -0.18000
C1372       C  0.21279163  0.46787642  0.26928610     0.04400
C1373       C  0.25207378  0.50653301  0.26803696     0.18600
C1374       C  0.26638566  0.52609530  0.25451560    -0.19400
C1375       C  0.27587143  0.52655791  0.28037731    -0.20700
C1376       C  0.26020080  0.51058544  0.29403803    -0.19200
C1377       C  0.22098648  0.47343758  0.29567270     0.20000
C1378       C  0.19784421  0.45019772  0.28333014     0.02100
C1379       C  0.15968052  0.41148057  0.28566979    -0.14000
C1380       C  0.14258402  0.39939728  0.29955058    -0.11700
C1381       C  0.16300396  0.42540089  0.31143831     0.01600
C1382       C  0.20335073  0.46099946  0.30953528    -0.23900
H1383       H  0.18293117  0.45787993  0.23379180     0.09600
H1384       H  0.15850925  0.42157337  0.25660156     0.13200
H1385       H  0.29611186  0.55584149  0.25369164     0.11900
H1386       H  0.30589107  0.55591375  0.27949684     0.13100
H1387       H  0.27833554  0.52808449  0.30340323     0.12100
H1388       H  0.14152056  0.39085197  0.27691972     0.09200
H1389       H  0.11147290  0.37163708  0.30078896     0.12500
H1390       H  0.21944764  0.48102742  0.31874479     0.14300
C1391       C  0.02556909  0.05901502  0.45974365    -0.01200
C1392       C  0.05914228  0.10023051  0.45752865    -0.09200
C1393       C  0.07362713  0.11512045  0.44354922    -0.18000
C1394       C  0.05571003  0.08843796  0.43137195     0.04400
C1395       C  0.02116343  0.04670701  0.43378672     0.18600
C1396       C  0.00595786  0.03281196  0.44783354    -0.19400
C1397       C  0.00341893  0.01829456  0.42227647    -0.20700
C1398       C  0.02053619  0.02965227  0.40850008    -0.19200
C1399       C  0.05515884  0.07008591  0.40579468     0.20000
C1400       C  0.07226429  0.10065425  0.41704087     0.02100
C1401       C  0.10612537  0.14153966  0.41349993    -0.14000
C1402       C  0.12441404  0.15048287  0.39972689    -0.11700
C1403       C  0.10956336  0.11917457  0.38902336     0.01600
C1404       C  0.07386385  0.07952281  0.39202191    -0.23900
H1405       H  0.07495201  0.12059213  0.46668043     0.09600
H1406       H  0.10011852  0.14694989  0.44267433     0.13200
H1407       H  0.98042375  0.00054503  0.44961146     0.11900
H1408       H  0.97710637  0.98648206  0.42404564     0.13100
H1409       H  0.00707583  0.00632469  0.39994789     0.12100
H1410       H  0.11982668  0.16694707  0.42125558     0.09200
H1411       H  0.15185765  0.18136586  0.39772509     0.12500
H1412       H  0.06160988  0.05523271  0.38375683     0.14300
C1413       C  0.23474075  0.18666312  0.35877596    -0.01200
C1414       C  0.25263564  0.18962328  0.34517359    -0.09200
C1415       C  0.29661638  0.20934873  0.34348837    -0.18000
C1416       C  0.32406004  0.22518972  0.35555972     0.04400
C1417       C  0.30557596  0.22299473  0.36926019     0.18600
C1418       C  0.26157521  0.20478292  0.37066221    -0.19400
C1419       C  0.33073799  0.23634410  0.38167754    -0.20700
C1420       C  0.37343784  0.24935620  0.38096750    -0.19200
C1421       C  0.39243621  0.25054131  0.36775981     0.20000
C1422       C  0.36860171  0.24045308  0.35475806     0.02100
C1423       C  0.39027421  0.24484097  0.34165166    -0.14000
C1424       C  0.43293029  0.25596164  0.34159117    -0.11700
C1425       C  0.45523124  0.26247077  0.35454730     0.01600
C1426       C  0.43491541  0.26065256  0.36756095    -0.23900
H1427       H  0.23236456  0.17485893  0.33591954     0.09600
H1428       H  0.30804534  0.20944036  0.33277154     0.13200
H1429       H  0.24778477  0.20138552  0.38127962     0.11900
H1430       H  0.31689882  0.23493079  0.39213582     0.13100
H1431       H  0.39158133  0.25778685  0.39088555     0.12100
H1432       H  0.37493026  0.23950295  0.33130495     0.09200
H1433       H  0.44807160  0.25784750  0.33137000     0.12500
H1434       H  0.45217850  0.26671780  0.37761899     0.14300
C1435       C  0.11451963  0.35155311  0.33498455    -0.01200
C1436       C  0.08059868  0.31026543  0.33710646    -0.09200
C1437       C  0.08677880  0.27897572  0.34341881    -0.18000
C1438       C  0.12740379  0.28795979  0.34791567     0.04400
C1439       C  0.16194188  0.32935066  0.34523632     0.18600
C1440       C  0.15526323  0.36038462  0.33886743    -0.19400
C1441       C  0.20298918  0.33982688  0.34912775    -0.20700
C1442       C  0.21065499  0.30991173  0.35547627    -0.19200
C1443       C  0.17742829  0.26881458  0.35828573     0.20000
C1444       C  0.13520543  0.25744396  0.35481007     0.02100
C1445       C  0.10278068  0.21599295  0.35835153    -0.14000
C1446       C  0.11214753  0.18640753  0.36413809    -0.11700
C1447       C  0.15407555  0.19683715  0.36675185     0.01600
C1448       C  0.18639359  0.23874070  0.36421903    -0.23900
H1449       H  0.04898142  0.30205394  0.33401611     0.09600
H1450       H  0.05909205  0.24806332  0.34468005     0.13200
H1451       H  0.18186533  0.39220550  0.33746764     0.11900
H1452       H  0.22948165  0.37137503  0.34714125     0.13100
H1453       H  0.24289779  0.31895926  0.35814466     0.12100
H1454       H  0.06987514  0.20518744  0.35649881     0.09200
H1455       H  0.08631994  0.15441517  0.36589104     0.12500
H1456       H  0.21878338  0.24784527  0.36649224     0.14300
C1457       C  0.61347858  0.94505639  0.04222302    -0.01200
C1458       C  0.60826238  0.90638094  0.03751001    -0.09200
C1459       C  0.64210733  0.90452151  0.03132335    -0.18000
C1460       C  0.68219676  0.94159977  0.02968150     0.04400
C1461       C  0.68529350  0.98116560  0.03264325     0.18600
C1462       C  0.65124504  0.98250614  0.03901136    -0.19400
C1463       C  0.72328375  0.01902590  0.03017822    -0.20700
C1464       C  0.75914760  0.01844180  0.02573541    -0.19200
C1465       C  0.75832930  0.98000588  0.02418743     0.20000
C1466       C  0.71977214  0.94092121  0.02601476     0.02100
C1467       C  0.72131173  0.90310374  0.02523576    -0.14000
C1468       C  0.75979483  0.90429035  0.02343321    -0.11700
C1469       C  0.79761365  0.94292574  0.02172349     0.01600
C1470       C  0.79638861  0.98055417  0.02164734    -0.23900
H1471       H  0.57914923  0.87710321  0.03977856     0.09600
H1472       H  0.63655700  0.87357388  0.02845401     0.13200
H1473       H  0.65518769  0.01256974  0.04249604     0.11900
H1474       H  0.72562190  0.04932489  0.03211822     0.13100
H1475       H  0.78832257  0.04833615  0.02427083     0.12100
H1476       H  0.69361353  0.87229237  0.02672703     0.09200
H1477       H  0.76008713  0.87485651  0.02351239     0.12500
H1478       H  0.82567960  0.01058749  0.02054750     0.14300
C1479       C  0.37667311  0.73808413  0.12978736    -0.01200
C1480       C  0.39315144  0.72592428  0.11835886    -0.09200
C1481       C  0.41207705  0.75257038  0.10647063    -0.18000
C1482       C  0.41640477  0.79319960  0.10581433     0.04400
C1483       C  0.40039812  0.80577526  0.11760017     0.18600
C1484       C  0.37973508  0.77782150  0.12921557    -0.19400
C1485       C  0.40659559  0.84677970  0.11799063    -0.20700
C1486       C  0.42965182  0.87606317  0.10722794    -0.19200
C1487       C  0.44594493  0.86474571  0.09552333     0.20000
C1488       C  0.43806495  0.82264892  0.09431514     0.02100
C1489       C  0.45359329  0.81247878  0.08189662    -0.14000
C1490       C  0.47976997  0.84389332  0.07200589    -0.11700
C1491       C  0.49070841  0.88617457  0.07401326     0.01600
C1492       C  0.47210887  0.89592595  0.08545145    -0.23900
H1493       H  0.39147410  0.69552782  0.11865075     0.09600
H1494       H  0.42441624  0.74113122  0.09820731     0.13200
H1495       H  0.36792189  0.78782682  0.13818436     0.11900
H1496       H  0.39478148  0.85676077  0.12695446     0.13100
H1497       H  0.43530015  0.90802520  0.10817797     0.12100
H1498       H  0.44729687  0.78082757  0.07983162     0.09200
H1499       H  0.49418016  0.83565553  0.06338019     0.12500
H1500       H  0.48072745  0.92865263  0.08713682     0.14300
C1501       C  0.43279214  0.99251550  0.95428781    -0.01200
C1502       C  0.45676705  0.98466647  0.94438412    -0.09200
C1503       C  0.48791591  0.01757901  0.93598783    -0.18000
C1504       C  0.49474528  0.05923561  0.93686095     0.04400
C1505       C  0.47128728  0.06707656  0.94736316     0.18600
C1506       C  0.44148916  0.03410057  0.95612200    -0.19400
C1507       C  0.47533848  0.10707765  0.94837435    -0.20700
C1508       C  0.50029403  0.13892288  0.93863794    -0.19200
C1509       C  0.52276417  0.13198348  0.92787146     0.20000
C1510       C  0.52178074  0.09268098  0.92715023     0.02100
C1511       C  0.54684707  0.08837538  0.91644071    -0.14000
C1512       C  0.57003373  0.12090076  0.90645655    -0.11700
C1513       C  0.56857126  0.15842594  0.90668290     0.01600
C1514       C  0.54538753  0.16390973  0.91759341    -0.23900
H1515       H  0.44966125  0.95249546  0.94254425     0.09600
H1516       H  0.50421852  0.00895335  0.92828301     0.13200
H1517       H  0.42199650  0.03999866  0.96343958     0.11900
H1518       H  0.45764082  0.11325836  0.95637831     0.13100
H1519       H  0.50142818  0.16901912  0.93937879     0.12100
H1520       H  0.54883109  0.06010823  0.91544334     0.09200
H1521       H  0.58787955  0.11598668  0.89816814     0.12500
H1522       H  0.54458715  0.19309851  0.91798664     0.14300
C1523       C  0.30447683  0.93147659  0.98294438    -0.01200
C1524       C  0.26348462  0.89660189  0.98390996    -0.09200
C1525       C  0.23275309  0.89869889  0.99211567    -0.18000
C1526       C  0.24184815  0.93660091  0.99922491     0.04400
C1527       C  0.28394931  0.97149131  0.99854706     0.18600
C1528       C  0.31505304  0.96815593  0.99082038    -0.19400
C1529       C  0.29407602  0.01040592  0.00472423    -0.20700
C1530       C  0.26273478  0.01630349  0.01073109    -0.19200
C1531       C  0.22079039  0.98296561  0.01119806     0.20000
C1532       C  0.21015173  0.94203223  0.00612564     0.02100
C1533       C  0.16789998  0.90870655  0.00772870    -0.14000
C1534       C  0.13707328  0.91641175  0.01316257    -0.11700
C1535       C  0.14714518  0.95739771  0.01700262     0.01600
C1536       C  0.18909552  0.99052703  0.01626607    -0.23900
H1537       H  0.25475750  0.86811171  0.97779947     0.09600
H1538       H  0.20160829  0.87099119  0.99194796     0.13200
H1539       H  0.34661156  0.99549556  0.98985222     0.11900
H1540       H  0.32611966  0.03708283  0.00428828     0.13100
H1541       H  0.27124734  0.04735346  0.01482153     0.12100
H1542       H  0.15757357  0.87646018  0.00474166     0.09200
H1543       H  0.10463076  0.89047892  0.01368535     0.12500
H1544       H  0.19681990  0.02223111  0.01933930     0.14300
C1545       C  0.51752191  0.92348717  0.04121554    -0.01200
C1546       C  0.47575028  0.89111399  0.03885260    -0.09200
C1547       C  0.45074020  0.89531903  0.02828479    -0.18000
C1548       C  0.46672759  0.93242505  0.01970264     0.04400
C1549       C  0.50927664  0.96483887  0.02197676     0.18600
C1550       C  0.53395058  0.96010871  0.03256624    -0.19400
C1551       C  0.52699154  0.00211930  0.01377234    -0.20700
C1552       C  0.50359879  0.00764176  0.00308646    -0.19200
C1553       C  0.46174332  0.97616875  0.00038629     0.20000
C1554       C  0.44241098  0.93845954  0.00884871     0.02100
C1555       C  0.39975080  0.90830783  0.00594451    -0.14000
C1556       C  0.37813793  0.91420182  0.99462807    -0.11700
C1557       C  0.39779372  0.95046231  0.98582234     0.01600
C1558       C  0.43943248  0.98182486  0.98904628    -0.23900
H1559       H  0.46211662  0.86250365  0.04524183     0.09600
H1560       H  0.41897870  0.86899890  0.02712330     0.13200
H1561       H  0.56587708  0.98593262  0.03442071     0.11900
H1562       H  0.55939623  0.02707687  0.01553470     0.13100
H1563       H  0.51851272  0.03660442  0.99679170     0.12100
H1564       H  0.38240194  0.87939458  0.01203810     0.09200
H1565       H  0.34613735  0.88917504  0.99239566     0.12500
H1566       H  0.45484715  0.01040809  0.98262901     0.14300
C1567       C  0.36094196  0.57715751  0.63024444    -0.01200
C1568       C  0.39706439  0.57374361  0.62902130    -0.09200
C1569       C  0.41184123  0.57044756  0.61541916    -0.18000
C1570       C  0.39172823  0.57240692  0.60261882     0.04400
C1571       C  0.35463477  0.57521468  0.60409761     0.18600
C1572       C  0.33902807  0.57625725  0.61780712    -0.19400
C1573       C  0.33470516  0.57965860  0.59191949    -0.20700
C1574       C  0.35223225  0.58412444  0.57831777    -0.19200
C1575       C  0.38934350  0.58283729  0.57649998     0.20000
C1576       C  0.40858108  0.57484918  0.58847598     0.02100
C1577       C  0.44500090  0.57194847  0.58578094    -0.14000
C1578       C  0.46393362  0.58123643  0.57209980    -0.11700
C1579       C  0.44705916  0.59348703  0.56079724     0.01600
C1580       C  0.40872839  0.59217291  0.56289713    -0.23900
H1581       H  0.41432642  0.57444233  0.63860676     0.09600
H1582       H  0.44021703  0.56861030  0.61522652     0.13200
H1583       H  0.31129867  0.57939155  0.61880697     0.11900
H1584       H  0.30646112  0.58179798  0.59299574     0.13100
H1585       H  0.33723294  0.58975606  0.56919315     0.12100
H1586       H  0.46034151  0.56414914  0.59415382     0.09200
H1587       H  0.49361139  0.58205664  0.57066861     0.12500
H1588       H  0.39551425  0.60141400  0.55411814     0.14300
C1589       C  0.57062511  0.65576720  0.52940511    -0.01200
C1590       C  0.59860525  0.65681338  0.53985192    -0.09200
C1591       C  0.64189878  0.67812038  0.53728349    -0.18000
C1592       C  0.65881404  0.70115079  0.52436971     0.04400
C1593       C  0.63014025  0.69744552  0.51335674     0.18600
C1594       C  0.58637015  0.67500664  0.51599496    -0.19400
C1595       C  0.64546849  0.71829051  0.50014971    -0.20700
C1596       C  0.68867523  0.74477930  0.49795885    -0.19200
C1597       C  0.71742107  0.75204318  0.50908244     0.20000
C1598       C  0.70290822  0.72986866  0.52239882     0.02100
C1599       C  0.73268638  0.73997544  0.53360794    -0.14000
C1600       C  0.77439675  0.77242456  0.53196028    -0.11700
C1601       C  0.78823303  0.79469672  0.51897838     0.01600
C1602       C  0.76017630  0.78339227  0.50735455    -0.23900
H1603       H  0.58702768  0.64286413  0.55039085     0.09600
H1604       H  0.66131465  0.67740096  0.54586867     0.13200
H1605       H  0.56471019  0.67478399  0.50798451     0.11900
H1606       H  0.62384206  0.71509565  0.49161581     0.13100
H1607       H  0.69947870  0.76138378  0.48776183     0.12100
H1608       H  0.72437432  0.72508550  0.54406104     0.09200
H1609       H  0.79587265  0.78089892  0.54102769     0.12500
H1610       H  0.77091185  0.80116077  0.49735493     0.14300
C1611       C  0.36929952  0.27785676  0.50941157    -0.01200
C1612       C  0.34043974  0.27617895  0.49918710    -0.09200
C1613       C  0.29702977  0.24934318  0.50111497    -0.18000
C1614       C  0.28108969  0.22164299  0.51309987     0.04400
C1615       C  0.31022343  0.22542415  0.52393331     0.18600
C1616       C  0.35384354  0.25329638  0.52198827    -0.19400
C1617       C  0.29580541  0.19985935  0.53628291    -0.20700
C1618       C  0.25307282  0.17011801  0.53800543    -0.19200
C1619       C  0.22389371  0.16400463  0.52716807     0.20000
C1620       C  0.23764702  0.18927180  0.51444270     0.02100
C1621       C  0.20785397  0.17934463  0.50324693    -0.14000
C1622       C  0.16636772  0.14573227  0.50462094    -0.11700
C1623       C  0.15265357  0.12182004  0.51732762     0.01600
C1624       C  0.18138106  0.13148402  0.52867329    -0.23900
H1625       H  0.35158096  0.29349223  0.48913291     0.09600
H1626       H  0.27683965  0.24984350  0.49276713     0.13200
H1627       H  0.37609471  0.25377212  0.52980096     0.11900
H1628       H  0.31779524  0.20260065  0.54461209     0.13100
H1629       H  0.24300946  0.15072275  0.54766201     0.12100
H1630       H  0.21607374  0.19579978  0.49305416     0.09200
H1631       H  0.14481634  0.13810900  0.49562369     0.12500
H1632       H  0.17118185  0.11210957  0.53834313     0.14300
C1633       C  0.49449016  0.34892724  0.47860032    -0.01200
C1634       C  0.53679449  0.35943708  0.47812841    -0.09200
C1635       C  0.55687467  0.36311349  0.46495198    -0.18000
C1636       C  0.53461876  0.35514064  0.45176722     0.04400
C1637       C  0.49307553  0.34882863  0.45227387     0.18600
C1638       C  0.47376103  0.34664070  0.46563742    -0.19400
C1639       C  0.46980070  0.34126958  0.43952998    -0.20700
C1640       C  0.48569901  0.33703008  0.42640994    -0.19200
C1641       C  0.52528181  0.34021890  0.42568590     0.20000
C1642       C  0.55094371  0.35061546  0.43826677     0.02100
C1643       C  0.59093597  0.35397956  0.43687800    -0.14000
C1644       C  0.60419298  0.34613264  0.42369753    -0.11700
C1645       C  0.57796756  0.33409156  0.41155292     0.01600
C1646       C  0.53881111  0.33177305  0.41253760    -0.23900
H1647       H  0.55323685  0.36111790  0.48804457     0.09600
H1648       H  0.58890109  0.36955692  0.46551009     0.13200
H1649       H  0.44079697  0.33793179  0.46595401     0.11900
H1650       H  0.43833454  0.33690626  0.43979352     0.13100
H1651       H  0.46626492  0.32980235  0.41683205     0.12100
H1652       H  0.61243299  0.36193745  0.44581817     0.09200
H1653       H  0.63467740  0.34825739  0.42308939     0.12500
H1654       H  0.51872901  0.32303207  0.40306636     0.14300
C1655       C  0.44655140  0.37264619  0.50257052    -0.01200
C1656       C  0.41355003  0.38109543  0.50417491    -0.09200
C1657       C  0.42041846  0.41866739  0.51064147    -0.18000
C1658       C  0.46084253  0.44936954  0.51580631     0.04400
C1659       C  0.49452667  0.44143653  0.51369135     0.18600
C1660       C  0.48714593  0.40362836  0.50717757    -0.19400
C1661       C  0.53539268  0.47093417  0.51832159    -0.20700
C1662       C  0.54359643  0.50813228  0.52513064    -0.19200
C1663       C  0.51111586  0.51676109  0.52756512     0.20000
C1664       C  0.46921690  0.48755816  0.52297833     0.02100
C1665       C  0.43771809  0.49794338  0.52583115    -0.14000
C1666       C  0.44783327  0.53633255  0.53241276    -0.11700
C1667       C  0.48946646  0.56565762  0.53654269     0.01600
C1668       C  0.52061730  0.55486614  0.53438916    -0.23900
H1669       H  0.38212937  0.35876070  0.50051844     0.09600
H1670       H  0.39337198  0.42263115  0.51152935     0.13200
H1671       H  0.51298863  0.39753248  0.50620099     0.11900
H1672       H  0.56125548  0.46515065  0.51668941     0.13100
H1673       H  0.57565393  0.53034844  0.52852370     0.12100
H1674       H  0.40510703  0.47740298  0.52287972     0.09200
H1675       H  0.42309643  0.54386171  0.53377830     0.12500
H1676       H  0.55255386  0.57612120  0.53786186     0.14300
C1677       C  0.71713954  0.41087646  0.79995541    -0.01200
C1678       C  0.73831482  0.40268864  0.78902203    -0.09200
C1679       C  0.75676833  0.43060047  0.77743400    -0.18000
C1680       C  0.75575234  0.46864346  0.77655827     0.04400
C1681       C  0.73474506  0.47727077  0.78776570     0.18600
C1682       C  0.71474097  0.44793473  0.79910440    -0.19400
C1683       C  0.73529276  0.51583645  0.78785516    -0.20700
C1684       C  0.75821153  0.54690093  0.77752179    -0.19200
C1685       C  0.77973386  0.53954281  0.76647612     0.20000
C1686       C  0.77683666  0.49942096  0.76540080     0.02100
C1687       C  0.79621609  0.49230924  0.75340187    -0.14000
C1688       C  0.82090773  0.52491214  0.74372874    -0.11700
C1689       C  0.82750923  0.56565594  0.74574907     0.01600
C1690       C  0.80568215  0.57251125  0.75685564    -0.23900
H1691       H  0.74065424  0.37437640  0.78943661     0.09600
H1692       H  0.77302547  0.42227975  0.76961258     0.13200
H1693       H  0.69901363  0.45490911  0.80764070     0.11900
H1694       H  0.71931296  0.52271605  0.79631864     0.13100
H1695       H  0.75954731  0.57708767  0.77828262     0.12100
H1696       H  0.79355495  0.46207932  0.75137035     0.09200
H1697       H  0.83751574  0.51899512  0.73523598     0.12500
H1698       H  0.81056679  0.60403428  0.75841512     0.14300
C1699       C  0.94509921  0.62196654  0.71345451    -0.01200
C1700       C  0.97987481  0.65804359  0.70765769    -0.09200
C1701       C  0.01347129  0.65587168  0.70152033    -0.18000
C1702       C  0.01400918  0.61748342  0.70146639     0.04400
C1703       C  0.97791171  0.58056344  0.70693461     0.18600
C1704       C  0.94353993  0.58294912  0.71255359    -0.19400
C1705       C  0.97762291  0.54219816  0.70770791    -0.20700
C1706       C  0.01345798  0.54035111  0.70410245    -0.19200
C1707       C  0.05009087  0.57654592  0.69924696     0.20000
C1708       C  0.05015032  0.61507466  0.69715386     0.02100
C1709       C  0.08698457  0.64992306  0.69132002    -0.14000
C1710       C  0.12316363  0.64756006  0.68872566    -0.11700
C1711       C  0.12409321  0.61065132  0.69192784     0.01600
C1712       C  0.08709319  0.57485721  0.69686382    -0.23900
H1713       H  0.98208865  0.68859205  0.70860141     0.09600
H1714       H  0.03971236  0.68535934  0.69775797     0.13200
H1715       H  0.91723063  0.55517938  0.71745207     0.11900
H1716       H  0.95015226  0.51384426  0.71176765     0.13100
H1717       H  0.01280923  0.51061318  0.70542274     0.12100
H1718       H  0.08897302  0.67959569  0.68876782     0.09200
H1719       H  0.15117286  0.67544115  0.68469844     0.12500
H1720       H  0.08727480  0.54583396  0.69901888     0.14300
C1721       C  0.65123802  0.61991404  0.65306295    -0.01200
C1722       C  0.62203307  0.58601730  0.66151567    -0.09200
C1723       C  0.59052619  0.58873604  0.66914591    -0.18000
C1724       C  0.58636309  0.62506069  0.66799505     0.04400
C1725       C  0.61771395  0.66015753  0.65998773     0.18600
C1726       C  0.65016398  0.65757605  0.65293268    -0.19400
C1727       C  0.61477682  0.69649413  0.65812422    -0.20700
C1728       C  0.57995307  0.69782529  0.66323716    -0.19200
C1729       C  0.54761498  0.66321486  0.67061670     0.20000
C1730       C  0.55094892  0.62692124  0.67361469     0.02100
C1731       C  0.51775539  0.59354032  0.68154519    -0.14000
C1732       C  0.48183430  0.59524992  0.68557437    -0.11700
C1733       C  0.47776801  0.63012409  0.68182177     0.01600
C1734       C  0.51131245  0.66430967  0.67460278    -0.23900
H1735       H  0.62215667  0.55650531  0.66157371     0.09600
H1736       H  0.56837114  0.56098463  0.67511322     0.13200
H1737       H  0.67239209  0.68357957  0.64616297     0.11900
H1738       H  0.63867440  0.72339777  0.65210032     0.13100
H1739       H  0.57781886  0.72578833  0.66109292     0.12100
H1740       H  0.51834917  0.56541757  0.68456977     0.09200
H1741       H  0.45645564  0.56843798  0.69117386     0.12500
H1742       H  0.50882980  0.69173044  0.67179532     0.14300
C1743       C  0.89520843  0.82881345  0.57070752    -0.01200
C1744       C  0.88222990  0.83890094  0.58352202    -0.09200
C1745       C  0.86130114  0.80827939  0.59421383    -0.18000
C1746       C  0.85117129  0.76585774  0.59216680     0.04400
C1747       C  0.86339060  0.75547890  0.57893629     0.18600
C1748       C  0.88644865  0.78720101  0.56857424    -0.19400
C1749       C  0.85073195  0.71320923  0.57586595    -0.20700
C1750       C  0.82432302  0.68083092  0.58529893    -0.19200
C1751       C  0.81167087  0.69009249  0.59837836     0.20000
C1752       C  0.82694615  0.73291824  0.60235947     0.02100
C1753       C  0.81617258  0.74075078  0.61620244    -0.14000
C1754       C  0.78746474  0.70742355  0.62497956    -0.11700
C1755       C  0.76845690  0.66543644  0.62021488     0.01600
C1756       C  0.78215996  0.65685261  0.60719336    -0.23900
H1757       H  0.88812613  0.87072106  0.58523392     0.09600
H1758       H  0.85165311  0.81826778  0.60367913     0.13200
H1759       H  0.89545222  0.77903820  0.55847507     0.11900
H1760       H  0.85973378  0.70493568  0.56579939     0.13100
H1761       H  0.81333798  0.64828853  0.58226931     0.12100
H1762       H  0.82865973  0.77238125  0.62036410     0.09200
H1763       H  0.77747228  0.71481682  0.63500559     0.12500
H1764       H  0.76776419  0.62434162  0.60349986     0.14300
C1765       C  0.74398679  0.63186039  0.65281821    -0.01200
C1766       C  0.74036038  0.64532137  0.66659444    -0.09200
C1767       C  0.75981779  0.63894685  0.67853458    -0.18000
C1768       C  0.78403628  0.61896656  0.67710909     0.04400
C1769       C  0.79019458  0.60800273  0.66300948     0.18600
C1770       C  0.76994396  0.61411352  0.65108932    -0.19400
C1771       C  0.81622144  0.59068864  0.66095222    -0.20700
C1772       C  0.83699798  0.58494184  0.67258805    -0.19200
C1773       C  0.83094979  0.59471725  0.68667680     0.20000
C1774       C  0.80307710  0.61035457  0.68913486     0.02100
C1775       C  0.79507996  0.61634098  0.70355572    -0.14000
C1776       C  0.81637859  0.61048220  0.71496301    -0.11700
C1777       C  0.84673301  0.59854663  0.71257340     0.01600
C1778       C  0.85292966  0.58955587  0.69832019    -0.23900
H1779       H  0.72200393  0.66051249  0.66822208     0.09600
H1780       H  0.75568068  0.65042422  0.68874522     0.13200
H1781       H  0.77320179  0.60362908  0.64049154     0.11900
H1782       H  0.82114771  0.58222819  0.65022883     0.13100
H1783       H  0.85771576  0.57249752  0.67056152     0.12100
H1784       H  0.77254805  0.62573931  0.70637975     0.09200
H1785       H  0.81035873  0.61746725  0.72574150     0.12500
H1786       H  0.87528255  0.57922225  0.69623286     0.14300
C1787       C  0.46587053  0.12100356  0.85656412    -0.01200
C1788       C  0.44261708  0.09867453  0.84439294    -0.09200
C1789       C  0.40145451  0.06413662  0.84584145    -0.18000
C1790       C  0.38241739  0.05084438  0.85959992     0.04400
C1791       C  0.40770432  0.07142660  0.87191763     0.18600
C1792       C  0.44878268  0.10607982  0.87029247    -0.19400
C1793       C  0.39125319  0.05865085  0.88581569    -0.20700
C1794       C  0.34918191  0.02782405  0.88778799    -0.19200
C1795       C  0.32247862  0.00945755  0.87590932     0.20000
C1796       C  0.33878325  0.01965711  0.86161986     0.02100
C1797       C  0.30995140  0.00054151  0.85003978    -0.14000
C1798       C  0.26640575  0.97594080  0.85257426    -0.11700
C1799       C  0.25074150  0.96832888  0.86665787     0.01600
C1800       C  0.27897190  0.98335652  0.87825923    -0.23900
H1801       H  0.45558563  0.10905365  0.83368087     0.09600
H1802       H  0.38497743  0.04915470  0.83600515     0.13200
H1803       H  0.46716252  0.12233604  0.87979134     0.11900
H1804       H  0.41066400  0.07369617  0.89523645     0.13100
H1805       H  0.33696548  0.01979930  0.89869087     0.12100
H1806       H  0.31981545  0.00609418  0.83891548     0.09200
H1807       H  0.24478293  0.96453291  0.84351308     0.12500
H1808       H  0.26657557  0.97771958  0.88917259     0.14300
C1809       C  0.12872978  0.90439845  0.89715819    -0.01200
C1810       C  0.08529938  0.88849437  0.89819906    -0.09200
C1811       C  0.06614188  0.88374915  0.91164973    -0.18000
C1812       C  0.09045141  0.89656447  0.92449090     0.04400
C1813       C  0.13398396  0.90943118  0.92342614     0.18600
C1814       C  0.15247758  0.91248529  0.90983838    -0.19400
C1815       C  0.15945025  0.92219820  0.93579390    -0.20700
C1816       C  0.14339060  0.92533077  0.94904064    -0.19200
C1817       C  0.10141266  0.91563674  0.95027253     0.20000
C1818       C  0.07388930  0.89966799  0.93813929     0.02100
C1819       C  0.03152870  0.88949093  0.94006107    -0.14000
C1820       C  0.01760293  0.89632836  0.95326731    -0.11700
C1821       C  0.04532185  0.91392693  0.96495268     0.01600
C1822       C  0.08709902  0.92302657  0.96345367    -0.23900
H1823       H  0.06658870  0.88235296  0.88849620     0.09600
H1824       H  0.03274718  0.87238955  0.91153948     0.13200
H1825       H  0.18632361  0.92549099  0.90903021     0.11900
H1826       H  0.19250754  0.93149792  0.93510559     0.13100
H1827       H  0.16434230  0.93670985  0.95829288     0.12100
H1828       H  0.00850954  0.87684583  0.93150566     0.09200
H1829       H  0.98519479  0.88907034  0.95421280     0.12500
H1830       H  0.10855246  0.93617679  0.97254174     0.14300
C1831       C  0.05155885  0.59005682  0.84757241    -0.01200
C1832       C  0.02534985  0.58487351  0.83585332    -0.09200
C1833       C  0.98149068  0.56135295  0.83722941    -0.18000
C1834       C  0.96231618  0.54120033  0.85040146     0.04400
C1835       C  0.98902525  0.54932646  0.86256590     0.18600
C1836       C  0.03331536  0.57340551  0.86103100    -0.19400
C1837       C  0.97141229  0.53126106  0.87595679    -0.20700
C1838       C  0.92810062  0.50318551  0.87733898    -0.19200
C1839       C  0.90132736  0.49198058  0.86532186     0.20000
C1840       C  0.91800370  0.51150018  0.85173021     0.02100
C1841       C  0.89003561  0.49850925  0.83984266    -0.14000
C1842       C  0.84808178  0.46604639  0.84119504    -0.11700
C1843       C  0.83187999  0.44607857  0.85446337     0.01600
C1844       C  0.85835735  0.46005293  0.86663174    -0.23900
H1845       H  0.03897763  0.59716332  0.82533274     0.09600
H1846       H  0.96359387  0.55822581  0.82762694     0.13200
H1847       H  0.05363465  0.57704972  0.87007994     0.11900
H1848       H  0.99144453  0.53785809  0.88534045     0.13100
H1849       H  0.91571256  0.48886965  0.88777172     0.12100
H1850       H  0.89988616  0.51168570  0.82919774     0.00200
H1851       H  0.82811523  0.45608969  0.83169117     0.12500
H1852       H  0.84612681  0.44454818  0.87692958     0.14300
C1853       C  0.17684506  0.65477234  0.81821379    -0.01200
C1854       C  0.21774975  0.66208080  0.81626578    -0.09200
C1855       C  0.23678965  0.67282556  0.80266736    -0.18000
C1856       C  0.21414772  0.67401197  0.79047235     0.04400
C1857       C  0.17331074  0.66836185  0.79273245     0.18600
C1858       C  0.15598251  0.66081368  0.80664217    -0.19400
C1859       C  0.14822938  0.66588894  0.78096555    -0.20700
C1860       C  0.16098137  0.66442596  0.76697200    -0.19200
C1861       C  0.20012849  0.66787845  0.76442368     0.20000
C1862       C  0.22860542  0.67607238  0.77604575     0.02100
C1863       C  0.26943156  0.68369920  0.77272792    -0.14000
C1864       C  0.27984750  0.67896906  0.75864695    -0.11700
C1865       C  0.24981994  0.66601731  0.74758370     0.01600
C1866       C  0.21047606  0.66173644  0.75040329    -0.23900
H1867       H  0.23411466  0.65728286  0.82513705     0.09600
H1868       H  0.26766496  0.67629924  0.80181395     0.13200
H1869       H  0.12398162  0.65444202  0.80814166     0.11900
H1870       H  0.11720159  0.66188482  0.78262675     0.13100
H1871       H  0.13964258  0.65947293  0.75812087     0.12100
H1872       H  0.29371629  0.69300240  0.78080934     0.09200
H1873       H  0.31097312  0.68374092  0.75649851     0.12500
H1874       H  0.18783162  0.65325063  0.74169478     0.14300
C1875       C  0.13272317  0.68223397  0.84117915    -0.01200
C1876       C  0.17455776  0.71410090  0.84402178    -0.09200
C1877       C  0.18393247  0.75321949  0.84960236    -0.18000
C1878       C  0.15152527  0.76188640  0.85281491     0.04400
C1879       C  0.10938214  0.73064920  0.84913138     0.18600
C1880       C  0.10042553  0.69143842  0.84332093    -0.19400
C1881       C  0.07627840  0.73831705  0.85163215    -0.20700
C1882       C  0.08399407  0.77594635  0.85802371    -0.19200
C1883       C  0.12493816  0.80666300  0.86223176     0.20000
C1884       C  0.15934047  0.80012066  0.85970708     0.02100
C1885       C  0.19989626  0.83179671  0.86445836    -0.14000
C1886       C  0.20614250  0.86887621  0.87102202    -0.11700
C1887       C  0.17245860  0.87597049  0.87301568     0.01600
C1888       C  0.13175138  0.84419657  0.86880155    -0.23900
H1889       H  0.20032086  0.70816170  0.84252397     0.09600
H1890       H  0.21682565  0.77563032  0.85156343     0.13200
H1891       H  0.06817342  0.66802628  0.84075394     0.11900
H1892       H  0.04410917  0.71485769  0.84876054     0.13100
H1893       H  0.05763413  0.78083655  0.85985253     0.12100
H1894       H  0.22751563  0.82894674  0.86327037     0.09200
H1895       H  0.23771032  0.89240484  0.87435143     0.12500
H1896       H  0.10546901  0.84949885  0.87008435     0.14300
C1897       C  0.52344692  0.21878456  0.29895736    -0.01200
C1898       C  0.48897262  0.17745838  0.29796361    -0.09200
C1899       C  0.46803908  0.16177506  0.28480378    -0.18000
C1900       C  0.48239282  0.18659703  0.27208024     0.04400
C1901       C  0.51729967  0.22864641  0.27327562     0.18600
C1902       C  0.53635213  0.24473196  0.28672072    -0.19400
C1903       C  0.53479246  0.25350406  0.26091930    -0.20700
C1904       C  0.52037935  0.23648678  0.24728033    -0.19200
C1905       C  0.48674306  0.19490742  0.24570728     0.20000
C1906       C  0.46555242  0.17027169  0.25808846     0.02100
C1907       C  0.42955900  0.12976030  0.25585194    -0.14000
C1908       C  0.41797847  0.11277975  0.24196402    -0.11700
C1909       C  0.44207635  0.13540618  0.22999045     0.01600
C1910       C  0.47543317  0.17702699  0.23185162    -0.23900
H1911       H  0.47866527  0.15701184  0.30735465     0.09600
H1912       H  0.44233164  0.12937953  0.28474541     0.13200
H1913       H  0.56348600  0.27654756  0.28746534     0.11900
H1914       H  0.56133778  0.28558833  0.26176762     0.13100
H1915       H  0.53615013  0.25573024  0.23789141     0.12100
H1916       H  0.41041207  0.11017351  0.26465580     0.09200
H1917       H  0.39192964  0.08060205  0.24069419     0.12500
H1918       H  0.49386834  0.19472372  0.22254825     0.14300
C1919       C  0.32279025  0.80069122  0.18706810    -0.01200
C1920       C  0.33079081  0.82618035  0.17483878    -0.09200
C1921       C  0.33813039  0.86753823  0.17614833    -0.18000
C1922       C  0.33729202  0.88448043  0.18980947     0.04400
C1923       C  0.32702486  0.85745450  0.20203538     0.18600
C1924       C  0.32008009  0.81626431  0.20055871    -0.19400
C1925       C  0.32521812  0.87210294  0.21579270    -0.20700
C1926       C  0.33563752  0.91384275  0.21785466    -0.19200
C1927       C  0.34818112  0.94200232  0.20621228     0.20000
C1928       C  0.34810797  0.92761701  0.19194308     0.02100
C1929       C  0.36127806  0.95773982  0.18062503    -0.14000
C1930       C  0.37784821  0.00084536  0.18357610    -0.11700
C1931       C  0.38025725  0.01490436  0.19775586     0.01600
C1932       C  0.36358753  0.98512397  0.20892561    -0.23900
H1933       H  0.33291688  0.81464243  0.16429672     0.09600
H1934       H  0.34520648  0.88573802  0.16633832     0.13200
H1935       H  0.31324720  0.79636115  0.21002708     0.11900
H1936       H  0.31692520  0.85145452  0.22511012     0.13100
H1937       H  0.33535611  0.92457052  0.22872681     0.12100
H1938       H  0.36131553  0.94931513  0.16949182     0.09200
H1939       H  0.39105212  0.02359761  0.17484360     0.12500
H1940       H  0.36619895  0.99613960  0.21995131     0.14300
C1941       C  0.08027771  0.01993806  0.08027231    -0.01200
C1942       C  0.06770010  0.98993683  0.09139098    -0.09200
C1943       C  0.08108233  0.00250813  0.10563254    -0.18000
C1944       C  0.10819806  0.04571904  0.10916971     0.04400
C1945       C  0.12330473  0.07554725  0.09764022     0.18600
C1946       C  0.10868137  0.06261538  0.08345724    -0.19400
C1947       C  0.15216368  0.11833159  0.10037292    -0.20700
C1948       C  0.16560099  0.13245418  0.11435866    -0.19200
C1949       C  0.14941046  0.10445532  0.12604773     0.20000
C1950       C  0.12023889  0.06066123  0.12368636     0.02100
C1951       C  0.10271681  0.03441780  0.13599513    -0.14000
C1952       C  0.11235101  0.05147430  0.14996655    -0.11700
C1953       C  0.14107714  0.09462310  0.15212670     0.01600
C1954       C  0.16042160  0.12060269  0.14013762    -0.23900
H1955       H  0.04577052  0.95675846  0.08918214     0.09600
H1956       H  0.06951741  0.97779623  0.11366599     0.13200
H1957       H  0.11893448  0.08594515  0.07487593     0.11900
H1958       H  0.16420096  0.14115302  0.09162852     0.13100
H1959       H  0.18766976  0.16588263  0.11609399     0.12100
H1960       H  0.07968648  0.00112301  0.13512911     0.09200
H1961       H  0.09617827  0.03120496  0.15910724     0.12500
H1962       H  0.18149065  0.15432132  0.14178033     0.14300
C1963       C  0.28265077  0.43583034  0.18626074    -0.01200
C1964       C  0.27611039  0.41404253  0.19933472    -0.09200
C1965       C  0.26499894  0.37134433  0.19947164    -0.18000
C1966       C  0.26048739  0.34924835  0.18644799     0.04400
C1967       C  0.27068732  0.37272197  0.17334434     0.18600
C1968       C  0.28104573  0.41527547  0.17335805    -0.19400
C1969       C  0.26904708  0.35323329  0.16020381    -0.20700
C1970       C  0.25504039  0.31021681  0.15963808    -0.19200
C1971       C  0.24137097  0.28543770  0.17215156     0.20000
C1972       C  0.24455119  0.30453714  0.18581321     0.02100
C1973       C  0.22880211  0.27752797  0.19801813    -0.14000
C1974       C  0.20767727  0.23335296  0.19647688    -0.11700
C1975       C  0.20327648  0.21500749  0.18288781     0.01600
C1976       C  0.22174402  0.24124503  0.17089192    -0.23900
H1977       H  0.27790289  0.42958158  0.20947033     0.09600
H1978       H  0.25952286  0.35629537  0.20988585     0.13200
H1979       H  0.28719916  0.43233578  0.16323610     0.11900
H1980       H  0.27758620  0.37116712  0.15022409     0.13100
H1981       H  0.25296932  0.29584936  0.14922328     0.12100
H1982       H  0.23006071  0.28947709  0.20874024     0.09200
H1983       H  0.19311876  0.21340080  0.20582484     0.12500
H1984       H  0.21761292  0.22693778  0.16032177     0.14300
C1985       C  0.21354638  0.13382199  0.17658256    -0.01200
C1986       C  0.20374463  0.09156866  0.17813186    -0.09200
C1987       C  0.23227705  0.08165519  0.18443778    -0.18000
C1988       C  0.27194127  0.11379954  0.18958351     0.04400
C1989       C  0.28277727  0.15657710  0.18735392     0.18600
C1990       C  0.25393709  0.16609930  0.18083631    -0.19400
C1991       C  0.32224778  0.18973641  0.19179090    -0.20700
C1992       C  0.35160780  0.18135091  0.19809766    -0.19200
C1993       C  0.34200302  0.13958188  0.20036343     0.20000
C1994       C  0.30161876  0.10516700  0.19655830     0.02100
C1995       C  0.29300516  0.06373721  0.19981386    -0.14000
C1996       C  0.32445507  0.05673343  0.20534980    -0.11700
C1997       C  0.36544129  0.09061930  0.20787101     0.01600
C1998       C  0.37322241  0.13208186  0.20591729    -0.23900
H1999       H  0.17296751  0.06569423  0.17505358     0.09600
H2000       H  0.22219633  0.04849008  0.18527028     0.13200
H2001       H  0.26306611  0.19887979  0.17931513     0.11900
H2002       H  0.33069281  0.22244329  0.19021089     0.13100
H2003       H  0.38221787  0.20776948  0.20112025     0.12100
H2004       H  0.26242916  0.03606943  0.19799677     0.09200
H2005       H  0.31676943  0.02451834  0.20729052     0.12500
H2006       H  0.40461735  0.15877881  0.20784252     0.14300
C2007       C  0.32776027  0.88843863  0.34312334    -0.01200
C2008       C  0.33312141  0.91599743  0.33178983    -0.09200
C2009       C  0.35771582  0.95980740  0.33359882    -0.18000
C2010       C  0.37825967  0.97739790  0.34685927     0.04400
C2011       C  0.36953638  0.94937298  0.35868748     0.18600
C2012       C  0.34496586  0.90526397  0.35666877    -0.19400
C2013       C  0.38705702  0.96546970  0.37226364    -0.20700
C2014       C  0.41457513  0.00870256  0.37421360    -0.19200
C2015       C  0.42657135  0.03667046  0.36251127     0.20000
C2016       C  0.40848856  0.02141088  0.34864802     0.02100
C2017       C  0.42358632  0.05028190  0.33697800    -0.14000
C2018       C  0.45651132  0.09184313  0.33888614    -0.11700
C2019       C  0.47461855  0.10648948  0.35249451     0.01600
C2020       C  0.45844675  0.07928711  0.36439123    -0.23900
H2021       H  0.32037664  0.90349611  0.32120025     0.09600
H2022       H  0.36096277  0.97899852  0.32431898     0.13200
H2023       H  0.34104123  0.88389823  0.36542829     0.11900
H2024       H  0.38003586  0.94437450  0.38138506     0.13100
H2025       H  0.42812253  0.02004201  0.38480943     0.12100
H2026       H  0.41219467  0.04117169  0.32610083     0.09200
H2027       H  0.46866688  0.11249117  0.32956675     0.12500
H2028       H  0.47284763  0.09042121  0.37490396     0.14300
C2029       C  0.26223039  0.68283588  0.24282174    -0.01200
C2030       C  0.26708556  0.72312942  0.24403907    -0.09200
C2031       C  0.26322687  0.73843156  0.25742407    -0.18000
C2032       C  0.25592072  0.71430524  0.27016823     0.04400
C2033       C  0.25154569  0.67353705  0.26884836     0.18600
C2034       C  0.25356432  0.65778254  0.25520608    -0.19400
C2035       C  0.24721971  0.64962006  0.28121007    -0.20700
C2036       C  0.24939727  0.66622288  0.29489700    -0.19200
C2037       C  0.25439157  0.70651524  0.29656298     0.20000
C2038       C  0.25549488  0.73021264  0.28423472     0.02100
C2039       C  0.25763962  0.76945545  0.28657316    -0.14000
C2040       C  0.26301366  0.78638886  0.30046503    -0.11700
C2041       C  0.26663393  0.76494281  0.31238504     0.01600
C2042       C  0.26051602  0.72424746  0.31044426    -0.23900
H2043       H  0.27442342  0.74310435  0.23458296     0.09600
H2044       H  0.26805696  0.77002028  0.25754862     0.13200
H2045       H  0.25093570  0.62699179  0.25431514     0.11900
H2046       H  0.24391847  0.61856744  0.28030222     0.13100
H2047       H  0.24789282  0.64770333  0.30424957     0.12100
H2048       H  0.25636943  0.78825612  0.27784044     0.09200
H2049       H  0.26761125  0.81786497  0.30174537     0.12500
H2050       H  0.26301789  0.70743834  0.31968370     0.14300
C2051       C  0.01000989  0.81410242  0.39069197    -0.01200
C2052       C  0.01750797  0.85546527  0.39181592    -0.09200
C2053       C  0.02267452  0.87472853  0.40528619    -0.18000
C2054       C  0.01910409  0.85254318  0.41822437     0.04400
C2055       C  0.01291609  0.81100931  0.41701305     0.18600
C2056       C  0.00931598  0.79260372  0.40332474    -0.19400
C2057       C  0.00795675  0.78719103  0.42946802    -0.20700
C2058       C  0.00703800  0.80286320  0.44306538    -0.19200
C2059       C  0.01172473  0.84306806  0.44461015     0.20000
C2060       C  0.01926372  0.86912787  0.43226171     0.02100
C2061       C  0.02532737  0.91011945  0.43450759    -0.14000
C2062       C  0.02220005  0.92379645  0.44830120    -0.11700
C2063       C  0.01245536  0.89708764  0.46026620     0.01600
C2064       C  0.00777359  0.85694815  0.45839583    -0.23900
H2065       H  0.01748379  0.87232567  0.38220368     0.09600
H2066       H  0.02731318  0.90623057  0.40521831     0.13200
H2067       H  0.00240389  0.76014398  0.40254847     0.11900
H2068       H  0.00334717  0.75559304  0.42865968     0.13100
H2069       H  0.00186289  0.78304815  0.45243242     0.12100
H2070       H  0.03207349  0.93220979  0.42580935     0.09200
H2071       H  0.02580077  0.95488945  0.44954376     0.12500
H2072       H  0.00051122  0.83631231  0.46767918     0.14300
C2073       C  0.95364049  0.69018951  0.36021906    -0.01200
C2074       C  0.94734571  0.66390414  0.37205990    -0.09200
C2075       C  0.92167437  0.61998776  0.37094070    -0.18000
C2076       C  0.90064372  0.60082251  0.35789421     0.04400
C2077       C  0.91024411  0.62719316  0.34553861     0.18600
C2078       C  0.93618164  0.67156889  0.34683344    -0.19400
C2079       C  0.89211838  0.60923301  0.33218009    -0.20700
C2080       C  0.86322462  0.56591276  0.33097190    -0.19200
C2081       C  0.85054633  0.53967142  0.34318391     0.20000
C2082       C  0.86916763  0.55686373  0.35682938     0.02100
C2083       C  0.85358818  0.52996632  0.36900457    -0.14000
C2084       C  0.82027920  0.48829988  0.36776775    -0.11700
C2085       C  0.80191888  0.47131096  0.35436475     0.01600
C2086       C  0.81796804  0.49684896  0.34200262    -0.23900
H2087       H  0.96001953  0.67758832  0.38253791     0.09600
H2088       H  0.91788851  0.60201941  0.38060732     0.13200
H2089       H  0.94078248  0.69181703  0.33763953     0.11900
H2090       H  0.89973683  0.62895847  0.32264601     0.13100
H2091       H  0.84935563  0.55319678  0.32051714     0.12100
H2092       H  0.86521968  0.54066504  0.37976197     0.09200
H2093       H  0.80845519  0.46921052  0.37745519     0.12500
H2094       H  0.80351398  0.48412402  0.33160908     0.14300
C2095       C  0.04444878  0.77032196  0.36863151    -0.01200
C2096       C  0.05467441  0.73836847  0.36900829    -0.09200
C2097       C  0.09261686  0.74492719  0.36312664    -0.18000
C2098       C  0.12170263  0.78388455  0.35649144     0.04400
C2099       C  0.11243683  0.81709845  0.35690271     0.18600
C2100       C  0.07426405  0.81010348  0.36293909    -0.19400
C2101       C  0.14074216  0.85672191  0.35090402    -0.20700
C2102       C  0.17803342  0.86403986  0.34440215    -0.19200
C2103       C  0.18772093  0.83173279  0.34351446     0.20000
C2104       C  0.15944112  0.79104024  0.34941324     0.02100
C2105       C  0.16995000  0.75913699  0.34781064    -0.14000
C2106       C  0.20765302  0.76774187  0.34124497    -0.11700
C2107       C  0.23648499  0.80832645  0.33599689     0.01600
C2108       C  0.22580027  0.84000792  0.33693109    -0.23900
H2109       H  0.03282292  0.70773884  0.37355142     0.09600
H2110       H  0.09796449  0.71864265  0.36377094     0.13200
H2111       H  0.06664130  0.83505920  0.36248446     0.11900
H2112       H  0.13394443  0.88225805  0.35121716     0.13100
H2113       H  0.19932137  0.89513690  0.33994565     0.12100
H2114       H  0.14988898  0.72723109  0.35164239     0.09200
H2115       H  0.21518656  0.74275609  0.34083444     0.12500
H2116       H  0.24736044  0.87130382  0.33275934     0.14300
C2117       C  0.13567262  0.14546082  0.01981199    -0.01200
C2118       C  0.17100178  0.16049539  0.02879894    -0.09200
C2119       C  0.20247057  0.20346291  0.02868908    -0.18000
C2120       C  0.19886230  0.23295944  0.01977223     0.04400
C2121       C  0.16327328  0.21699129  0.01039860     0.18600
C2122       C  0.13248795  0.17359610  0.01038947    -0.19400
C2123       C  0.15768791  0.24464005  0.00148304    -0.20700
C2124       C  0.18536095  0.28812874  0.00221097    -0.19200
C2125       C  0.21958343  0.30510872  0.01177536     0.20000
C2126       C  0.22785268  0.27782989  0.02032666     0.02100
C2127       C  0.26362833  0.29695362  0.02951438    -0.14000
C2128       C  0.28758637  0.34110428  0.03111622    -0.11700
C2129       C  0.27695375  0.36758853  0.02355296     0.01600
C2130       C  0.24415328  0.34933956  0.01339630    -0.23900
H2131       H  0.17397136  0.13897717  0.03607970     0.09600
H2132       H  0.22855239  0.21286013  0.03601099     0.13200
H2133       H  0.10500756  0.16187959  0.00344112     0.11900
H2134       H  0.13086118  0.23266000  0.99423710     0.13100
H2135       H  0.17918686  0.30873984  0.99554452     0.12100
H2136       H  0.27288095  0.27857757  0.03601366     0.09200
H2137       H  0.31280045  0.35430209  0.03901956     0.12500
H2138       H  0.23611756  0.36958677  0.00730800     0.14300
C2139       C  0.34846910  0.48621364  0.05584592    -0.01200
C2140       C  0.36865185  0.52992006  0.05833975    -0.09200
C2141       C  0.37504380  0.54594906  0.07245645    -0.18000
C2142       C  0.35937235  0.51836446  0.08452255     0.04400
C2143       C  0.33960601  0.47408384  0.08185110     0.18600
C2144       C  0.33571003  0.45869400  0.06769900    -0.19400
C2145       C  0.32095216  0.44513228  0.09318779    -0.20700
C2146       C  0.31920896  0.45896965  0.10699550    -0.19200
C2147       C  0.33752770  0.50223487  0.10997025     0.20000
C2148       C  0.35976486  0.53269949  0.09897246     0.02100
C2149       C  0.38024683  0.57600914  0.10289263    -0.14000
C2150       C  0.37614091  0.58840310  0.11683353    -0.11700
C2151       C  0.35106242  0.55821048  0.12726266     0.01600
C2152       C  0.33273183  0.51512130  0.12380815    -0.23900
H2153       H  0.37754206  0.55160784  0.04930941     0.09600
H2154       H  0.38966998  0.57983589  0.07355046     0.13200
H2155       H  0.31868951  0.42477656  0.06578664     0.11900
H2156       H  0.30578724  0.41135387  0.09122215     0.13100
H2157       H  0.30284818  0.43557608  0.11537349     0.12100
H2158       H  0.39939370  0.60094759  0.09536460     0.09200
H2159       H  0.39126749  0.62189671  0.11926946     0.12500
H2160       H  0.31415524  0.49145160  0.13188359     0.14300
C2161       C  0.59601992  0.42944605  0.98201759    -0.01200
C2162       C  0.58008034  0.38581496  0.98056354    -0.09200
C2163       C  0.57670171  0.36765274  0.96694128    -0.18000
C2164       C  0.59091721  0.39310911  0.95434578     0.04400
C2165       C  0.60601781  0.43717716  0.95592906     0.18600
C2166       C  0.60718995  0.45451213  0.96957126    -0.19400
C2167       C  0.62255736  0.46435072  0.94404783    -0.20700
C2168       C  0.62606314  0.44915537  0.93070562    -0.19200
C2169       C  0.61210464  0.40615434  0.92877069     0.20000
C2170       C  0.59296126  0.37713484  0.94040628     0.02100
C2171       C  0.57762094  0.33371226  0.93757879    -0.14000
C2172       C  0.58268821  0.32014711  0.92396753    -0.11700
C2173       C  0.60384436  0.34934667  0.91283393     0.01600
C2174       C  0.61793334  0.39221941  0.91528535    -0.23900
H2175       H  0.57242207  0.36609577  0.99009653     0.09600
H2176       H  0.56529604  0.33411733  0.96670423     0.13200
H2177       H  0.62095575  0.48849991  0.97068317     0.11900
H2178       H  0.63428463  0.49796882  0.94519908     0.13100
H2179       H  0.64024356  0.47135064  0.92185179     0.12100
H2180       H  0.56165351  0.30957200  0.94568083     0.09200
H2181       H  0.57122442  0.28676617  0.92228331     0.12500
H2182       H  0.63360293  0.41487548  0.90663756     0.14300
C2183       C  0.81605247  0.77322400  0.02001937    -0.01200
C2184       C  0.78801876  0.75986779  0.00832557    -0.09200
C2185       C  0.75499193  0.71768112  0.00724642    -0.18000
C2186       C  0.75003131  0.68708491  0.01763582     0.04400
C2187       C  0.77916307  0.70097438  0.02935622     0.18600
C2188       C  0.81096554  0.74382409  0.03062796    -0.19400
C2189       C  0.77761295  0.67172051  0.03942063    -0.20700
C2190       C  0.74895697  0.62869809  0.03780484    -0.19200
C2191       C  0.72016635  0.61389634  0.02634441     0.20000
C2192       C  0.71894454  0.64289408  0.01642469     0.02100
C2193       C  0.68749118  0.62603515  0.00553208    -0.14000
C2194       C  0.66140194  0.58206908  0.00373406    -0.11700
C2195       C  0.66587210  0.55373553  0.01271248     0.01600
C2196       C  0.69392166  0.57001369  0.02439215    -0.23900
H2197       H  0.79196237  0.78215399  0.99990725     0.09600
H2198       H  0.73491560  0.70952396  0.99787684     0.13200
H2199       H  0.83330567  0.75394657  0.03949733     0.11900
H2200       H  0.79978387  0.68202105  0.04833024     0.13100
H2201       H  0.74976686  0.60673901  0.04546982     0.12100
H2202       H  0.68315184  0.64607105  0.99803795     0.09200
H2203       H  0.63963521  0.57029006  0.99471507     0.12500
H2204       H  0.69689708  0.54831166  0.03159754     0.14300
C2205       C  0.57219021  0.48178237  0.00498487    -0.01200
C2206       C  0.54356999  0.48073193  0.99479087    -0.09200
C2207       C  0.50381755  0.47364558  0.99911695    -0.18000
C2208       C  0.49130690  0.46667032  0.01384345     0.04400
C2209       C  0.52088323  0.46826594  0.02407749     0.18600
C2210       C  0.56055710  0.47575545  0.01959298    -0.19400
C2211       C  0.51064527  0.46186666  0.03876478    -0.20700
C2212       C  0.47161220  0.45422170  0.04362499    -0.19200
C2213       C  0.44150786  0.45222326  0.03391369     0.20000
C2214       C  0.45068254  0.45795720  0.01884635     0.02100
C2215       C  0.41864720  0.45440804  0.00949760    -0.14000
C2216       C  0.37966054  0.44613966  0.01489366    -0.11700
C2217       C  0.37110457  0.44137654  0.02975938     0.01600
C2218       C  0.40224858  0.44454007  0.03921493    -0.23900
H2219       H  0.55190284  0.48510692  0.98346394     0.09600
H2220       H  0.48346448  0.47347385  0.99069924     0.13200
H2221       H  0.58234809  0.47577964  0.02750019     0.11900
H2222       H  0.53311455  0.46290886  0.04658740     0.13100
H2223       H  0.46485845  0.44965640  0.05508078     0.12100
H2224       H  0.42278316  0.45791831  0.99796920     0.09200
H2225       H  0.35618873  0.44440459  0.00739937     0.12500
H2226       H  0.39579532  0.44090565  0.05069600     0.14300
C2227       C  0.01761857  0.42098485  0.58481537    -0.01200
C2228       C  0.01339476  0.45212478  0.59205932    -0.09200
C2229       C  0.04676624  0.48297061  0.60041879    -0.18000
C2230       C  0.08474327  0.48223858  0.60223411     0.04400
C2231       C  0.08911049  0.45142596  0.59429484     0.18600
C2232       C  0.05611748  0.42195661  0.58552080    -0.19400
C2233       C  0.12530339  0.44830132  0.59582672    -0.20700
C2234       C  0.15666874  0.47386670  0.60555980    -0.19200
C2235       C  0.15277501  0.50339245  0.61396108     0.20000
C2236       C  0.11745195  0.50902141  0.61220100     0.02100
C2237       C  0.11582700  0.53990404  0.62094989    -0.14000
C2238       C  0.14661198  0.56218697  0.63156474    -0.11700
C2239       C  0.17985053  0.55439736  0.63378040     0.01600
C2240       C  0.18334407  0.52601205  0.62455549    -0.23900
H2241       H  0.98351779  0.45132829  0.59182035     0.09600
H2242       H  0.04113414  0.50553458  0.60593526     0.13200
H2243       H  0.05897615  0.39716490  0.58018298     0.11900
H2244       H  0.12874364  0.42488075  0.58979934     0.13100
H2245       H  0.18368703  0.46969041  0.60680541     0.12100
H2246       H  0.09058264  0.54669776  0.62007669     0.09200
H2247       H  0.14333309  0.58418797  0.63846798     0.12500
H2248       H  0.20939613  0.52033582  0.62595276     0.14300
C2249       C  0.97077083  0.13036358  0.52410162    -0.01200
C2250       C  0.00456697  0.17193370  0.52282753    -0.09200
C2251       C  0.99998477  0.20622050  0.52697278    -0.18000
C2252       C  0.96169267  0.19961842  0.53306464     0.04400
C2253       C  0.92743733  0.15715406  0.53411948     0.18600
C2254       C  0.93202625  0.12328193  0.52937154    -0.19400
C2255       C  0.88942399  0.14846781  0.54056973    -0.20700
C2256       C  0.88546340  0.18073863  0.54683434    -0.19200
C2257       C  0.91908087  0.22264074  0.54651670     0.20000
C2258       C  0.95693938  0.23309157  0.53901877     0.02100
C2259       C  0.98901280  0.27633002  0.53847628    -0.14000
C2260       C  0.98546631  0.30696176  0.54638152    -0.11700
C2261       C  0.94993682  0.29551023  0.55499260     0.01600
C2262       C  0.91600612  0.25372164  0.55441567    -0.23900
H2263       H  0.03477728  0.17784511  0.51881600     0.09600
H2264       H  0.02747274  0.23735470  0.52587514     0.13200
H2265       H  0.90602127  0.09095625  0.53054615     0.11900
H2266       H  0.86315076  0.11620077  0.54132884     0.13100
H2267       H  0.85629686  0.17266517  0.55233847     0.12100
H2268       H  0.01783121  0.28712802  0.53247841     0.09200
H2269       H  0.01202473  0.33912127  0.54660255     0.12500
H2270       H  0.88817517  0.24481641  0.56091164     0.14300
C2271       C  0.96632471  0.59911654  0.49017945    -0.01200
C2272       C  0.99936288  0.62825533  0.49893909    -0.09200
C2273       C  0.99754027  0.66201042  0.50537984    -0.18000
C2274       C  0.96296959  0.66823528  0.50281109     0.04400
C2275       C  0.92872855  0.63711373  0.49446351     0.18600
C2276       C  0.93057303  0.60295655  0.48841800    -0.19400
C2277       C  0.89362430  0.64126122  0.49155443    -0.20700
C2278       C  0.89230451  0.67652374  0.49627001    -0.19200
C2279       C  0.92618022  0.70874548  0.50393535     0.20000
C2280       C  0.96173375  0.70489578  0.50759469     0.02100
C2281       C  0.99501043  0.73874234  0.51533328    -0.14000
C2282       C  0.99366239  0.77539876  0.51872140    -0.11700
C2283       C  0.95922381  0.77958349  0.51453398     0.01600
C2284       C  0.92520973  0.74554943  0.50745471    -0.23900
H2285       H  0.02746141  0.62602784  0.50028544     0.09600
H2286       H  0.02433527  0.68365118  0.51182277     0.13200
H2287       H  0.90525094  0.58072891  0.48143697     0.11900
H2288       H  0.86739026  0.61753119  0.48525459     0.13100
H2289       H  0.86502628  0.67916601  0.49353785     0.12100
H2290       H  0.02294380  0.73823931  0.51857819     0.09200
H2291       H  0.02046098  0.80123817  0.52415943     0.12500
H2292       H  0.89818876  0.74817054  0.50428430     0.14300
C2293       C  0.90986261  0.47030602  0.46358996    -0.01200
C2294       C  0.91665237  0.44388097  0.45447973    -0.09200
C2295       C  0.88451253  0.41488247  0.44533981    -0.18000
C2296       C  0.84500975  0.41292279  0.44457910     0.04400
C2297       C  0.83759658  0.43801457  0.45451924     0.18600
C2298       C  0.86945267  0.46528739  0.46417015    -0.19400
C2299       C  0.79979805  0.43858296  0.45395057    -0.20700
C2300       C  0.77035265  0.41710783  0.44310531    -0.19200
C2301       C  0.77747282  0.39369683  0.43272904     0.20000
C2302       C  0.81395636  0.38964588  0.43367871     0.02100
C2303       C  0.81850603  0.36398143  0.42327727    -0.14000
C2304       C  0.78957478  0.34548654  0.41193760    -0.11700
C2305       C  0.75544300  0.35223975  0.41044571     0.01600
C2306       C  0.74900521  0.37550270  0.42112187    -0.23900
H2307       H  0.94788535  0.44785522  0.45367437     0.09600
H2308       H  0.89259186  0.39674755  0.43825990     0.13200
H2309       H  0.86441092  0.48646974  0.47094248     0.11900
H2310       H  0.79387149  0.45748911  0.46152966     0.13100
H2311       H  0.74229623  0.41975780  0.44260913     0.12100
H2312       H  0.84443831  0.35811416  0.42350501     0.09200
H2313       H  0.79494543  0.32714991  0.40395144     0.12500
H2314       H  0.72210722  0.38004137  0.42026378     0.14300
C2315       C  0.97343883  0.39123141  0.55356137    -0.01200
C2316       C  0.00863249  0.43030060  0.54985426    -0.09200
C2317       C  0.00675119  0.45407811  0.53827598    -0.18000
C2318       C  0.96916188  0.43959826  0.53010870     0.04400
C2319       C  0.93356646  0.40004977  0.53404097     0.18600
C2320       C  0.93611234  0.37643999  0.54554345    -0.19400
C2321       C  0.89533146  0.38433372  0.52658244    -0.20700
C2322       C  0.89149518  0.40698916  0.51522567    -0.19200
C2323       C  0.92583289  0.44591662  0.51095555     0.20000
C2324       C  0.96527390  0.46281730  0.51829187     0.02100
C2325       C  0.99897223  0.50205605  0.51340137    -0.14000
C2326       C  0.99361137  0.52343201  0.50181622    -0.11700
C2327       C  0.95465770  0.50670979  0.49464418     0.01600
C2328       C  0.92093879  0.46782428  0.49928451    -0.23900
H2329       H  0.03776152  0.44242029  0.55587397     0.09600
H2330       H  0.03507792  0.48382055  0.53606007     0.13200
H2331       H  0.90842522  0.34666542  0.54854552     0.11900
H2332       H  0.86805805  0.35424766  0.52958497     0.13100
H2333       H  0.86140269  0.39386262  0.50970543     0.12100
H2334       H  0.02998934  0.51677432  0.51818585     0.09200
H2335       H  0.02054481  0.55282210  0.49815013     0.12500
H2336       H  0.89088253  0.45452008  0.49374963     0.14300
C2337       C  0.66810451  0.47064480  0.85818807    -0.01200
C2338       C  0.66668061  0.48672173  0.87174851    -0.09200
C2339       C  0.67563023  0.52848111  0.87328495    -0.18000
C2340       C  0.68777600  0.55615113  0.86127289     0.04400
C2341       C  0.68790536  0.53920660  0.84746571     0.18600
C2342       C  0.67721748  0.49660292  0.84601635    -0.19400
C2343       C  0.70069989  0.56540530  0.83527043    -0.20700
C2344       C  0.71586425  0.60862159  0.83657697    -0.19200
C2345       C  0.71780213  0.62664545  0.85006751     0.20000
C2346       C  0.70211220  0.60045102  0.86254006     0.02100
C2347       C  0.70342544  0.62021001  0.87581045    -0.14000
C2348       C  0.72264436  0.66430148  0.87681271    -0.11700
C2349       C  0.74082764  0.69003911  0.86467202     0.01600
C2350       C  0.73731610  0.67099504  0.85126851    -0.23900
H2351       H  0.65909201  0.46695606  0.88127074     0.09600
H2352       H  0.67437234  0.53861199  0.88408916     0.13200
H2353       H  0.67849363  0.48435439  0.83549605     0.11900
H2354       H  0.70059532  0.55269026  0.82470549     0.13100
H2355       H  0.72717279  0.62828451  0.82699892     0.12100
H2356       H  0.69108845  0.60259361  0.88568136     0.09200
H2357       H  0.72550969  0.67857784  0.88730067     0.12500
H2358       H  0.75175375  0.69093802  0.84189228     0.14300
C2359       C  0.87157036  0.89617033  0.96400295    -0.01200
C2360       C  0.88460851  0.92514644  0.95258081    -0.09200
C2361       C  0.86950232  0.91152606  0.93861198    -0.18000
C2362       C  0.84025457  0.86836636  0.93574287     0.04400
C2363       C  0.82424174  0.83998679  0.94766245     0.18600
C2364       C  0.84068435  0.85384919  0.96156650    -0.19400
C2365       C  0.79278188  0.79769459  0.94556560    -0.20700
C2366       C  0.77780498  0.78254338  0.93179066    -0.19200
C2367       C  0.79537849  0.80878904  0.91973114     0.20000
C2368       C  0.82713173  0.85205803  0.92149215     0.02100
C2369       C  0.84639330  0.87620304  0.90891080    -0.14000
C2370       C  0.83594959  0.85742797  0.89524836    -0.11700
C2371       C  0.80472434  0.81482659  0.89367793     0.01600
C2372       C  0.78343016  0.79116606  0.90588873    -0.23900
H2373       H  0.90822537  0.95812772  0.95433003     0.09600
H2374       H  0.88140296  0.93535403  0.93026692     0.13200
H2375       H  0.83001238  0.83155843  0.97048325     0.11900
H2376       H  0.77995192  0.77607570  0.95462883     0.13100
H2377       H  0.75372922  0.74950001  0.93050687     0.12100
H2378       H  0.87153119  0.90882298  0.90935890     0.09200
H2379       H  0.85335124  0.87578595  0.88590696     0.12500
H2380       H  0.76020141  0.75777386  0.90468232     0.14300
C2381       C  0.50596948  0.76358208  0.81260464    -0.01200
C2382       C  0.52809455  0.78648825  0.80037501    -0.09200
C2383       C  0.51508729  0.76925647  0.78656157    -0.18000
C2384       C  0.47925038  0.72837753  0.78460712     0.04400
C2385       C  0.46018201  0.70351558  0.79714282     0.18600
C2386       C  0.47354376  0.72132738  0.81096355    -0.19400
C2387       C  0.42595115  0.66210136  0.79580879    -0.20700
C2388       C  0.40857712  0.64565860  0.78233037    -0.19200
C2389       C  0.42431950  0.67059185  0.76987688     0.20000
C2390       C  0.46024783  0.71217255  0.77080435     0.02100
C2391       C  0.47379564  0.73674012  0.75802776    -0.14000
C2392       C  0.45144271  0.72152353  0.74510346    -0.11700
C2393       C  0.41584716  0.68091910  0.74429486     0.01600
C2394       C  0.40312853  0.65502774  0.75661115    -0.23900
H2395       H  0.55305457  0.81927188  0.80140597     0.09600
H2396       H  0.53255025  0.78937549  0.77761900     0.13200
H2397       H  0.45628629  0.70354341  0.82042944     0.11900
H2398       H  0.41168210  0.64271844  0.80530444     0.13100
H2399       H  0.38142211  0.61387171  0.78172755     0.12100
H2400       H  0.50049429  0.76855894  0.75780481     0.09200
H2401       H  0.46178219  0.74184737  0.73567249     0.12500
H2402       H  0.37525514  0.62366346  0.75605322     0.14300
C2403       C  0.55966765  0.88793634  0.84294672    -0.01200
C2404       C  0.58337052  0.91631322  0.83195444    -0.09200
C2405       C  0.60004763  0.95981571  0.83367862    -0.18000
C2406       C  0.59253076  0.97622563  0.84642142     0.04400
C2407       C  0.57091422  0.94749953  0.85791451     0.18600
C2408       C  0.55461098  0.90379803  0.85605448    -0.19400
C2409       C  0.56378879  0.96227743  0.87091707    -0.20700
C2410       C  0.57652342  0.00485802  0.87262396    -0.19200
C2411       C  0.59581676  0.03353804  0.86125124     0.20000
C2412       C  0.60410644  0.01965029  0.84796399     0.02100
C2413       C  0.62162833  0.04934834  0.83655855    -0.14000
C2414       C  0.62944993  0.09058528  0.83816796    -0.11700
C2415       C  0.62133004  0.10398406  0.85125414     0.01600
C2416       C  0.60541201  0.07570973  0.86288150    -0.23900
H2417       H  0.58692601  0.90450372  0.82165149     0.09600
H2418       H  0.61745206  0.97956290  0.82466222     0.13200
H2419       H  0.53563236  0.88174511  0.86448084     0.11900
H2420       H  0.54758023  0.94059992  0.87975096     0.13100
H2421       H  0.57000831  0.01516214  0.88275895     0.12100
H2422       H  0.62831114  0.04135326  0.82609907     0.09200
H2423       H  0.64175865  0.11218544  0.82908513     0.12500
H2424       H  0.59855387  0.08600135  0.87296441     0.14300
C2425       C  0.57747091  0.81127696  0.83719629    -0.01200
C2426       C  0.61717520  0.84556566  0.84106750    -0.09200
C2427       C  0.64734403  0.83916774  0.84806471    -0.18000
C2428       C  0.63906536  0.79791222  0.85139279     0.04400
C2429       C  0.59979593  0.76318544  0.84682325     0.18600
C2430       C  0.56967830  0.77009042  0.83991105    -0.19400
C2431       C  0.59049121  0.72160116  0.84932140    -0.20700
C2432       C  0.61968590  0.71367724  0.85603457    -0.19200
C2433       C  0.65869825  0.74711304  0.86068489     0.20000
C2434       C  0.66852035  0.78970291  0.85878409     0.02100
C2435       C  0.70748490  0.82207847  0.86428751    -0.14000
C2436       C  0.73684189  0.81273966  0.87022037    -0.11700
C2437       C  0.72855656  0.77077480  0.87110587     0.01600
C2438       C  0.68837340  0.73809383  0.86684632    -0.23900
H2439       H  0.62521755  0.87769116  0.83885617     0.09600
H2440       H  0.67695523  0.86716927  0.85068682     0.13200
H2441       H  0.53922880  0.74304518  0.83715933     0.11900
H2442       H  0.56056687  0.69493006  0.84587989     0.13100
H2443       H  0.61177054  0.68109422  0.85751237     0.12100
H2444       H  0.71660207  0.85505941  0.86386061     0.09200
H2445       H  0.76719561  0.83907957  0.87339297     0.12500
H2446       H  0.68024744  0.70546377  0.86789992     0.14300
C2447       C  0.13790965  0.43868987  0.68817787    -0.01200
C2448       C  0.10561203  0.42560093  0.67793098    -0.09200
C2449       C  0.07418794  0.38274286  0.67673907    -0.18000
C2450       C  0.07513426  0.35145798  0.68549648     0.04400
C2451       C  0.10770346  0.36544411  0.69605944     0.18600
C2452       C  0.13808001  0.40867183  0.69744636    -0.19400
C2453       C  0.11106265  0.33607603  0.70476812    -0.20700
C2454       C  0.08391892  0.29288440  0.70285257    -0.19200
C2455       C  0.05233641  0.27789856  0.69229577     0.20000
C2456       C  0.04651621  0.30680919  0.68372799     0.02100
C2457       C  0.01340328  0.28954500  0.67342700    -0.14000
C2458       C  0.98937753  0.24570037  0.67103858    -0.11700
C2459       C  0.99739382  0.21774360  0.67885379     0.01600
C2460       C  0.02785006  0.23406535  0.68983088    -0.23900
H2461       H  0.10524329  0.44850834  0.67061167     0.09600
H2462       H  0.05056494  0.37485724  0.66851570     0.13200
H2463       H  0.16351188  0.41878747  0.70522411     0.11900
H2464       H  0.13575943  0.34655516  0.71283499     0.13100
H2465       H  0.08830994  0.27098786  0.70947129     0.12100
H2466       H  0.00623982  0.30921253  0.66674895     0.09200
H2467       H  0.96614271  0.23389114  0.66245452     0.12500
H2468       H  0.03395973  0.21259202  0.69603084     0.14300
C2469       C  0.92533904  0.09674420  0.64661915    -0.01200
C2470       C  0.90978574  0.05334390  0.64480402    -0.09200
C2471       C  0.90388744  0.03569606  0.63099138    -0.18000
C2472       C  0.91497252  0.06145156  0.61848478     0.04400
C2473       C  0.92921292  0.10521713  0.62040998     0.18600
C2474       C  0.93332182  0.12212561  0.63434822    -0.19400
C2475       C  0.94228737  0.13252244  0.60849580    -0.20700
C2476       C  0.94423017  0.11796499  0.59482113    -0.19200
C2477       C  0.93201093  0.07544602  0.59262673     0.20000
C2478       C  0.91526240  0.04611180  0.60427795     0.02100
C2479       C  0.90090646  0.00303173  0.60124217    -0.14000
C2480       C  0.90558419  0.99022992  0.58748435    -0.11700
C2481       C  0.92520294  0.01984464  0.57636712     0.01600
C2482       C  0.93751847  0.06229848  0.57892829    -0.23900
H2483       H  0.90464929  0.03346502  0.65414242     0.09600
H2484       H  0.89326816  0.00236341  0.63049065     0.13200
H2485       H  0.94673360  0.15599097  0.63570725     0.11900
H2486       H  0.95294424  0.16585258  0.60986786     0.13100
H2487       H  0.95619424  0.14034093  0.58594481     0.12100
H2488       H  0.88625805  0.97856263  0.60931126     0.09200
H2489       H  0.89533524  0.95715428  0.58569284     0.12500
H2490       H  0.95184520  0.08522192  0.57026818     0.14300
C2491       C  0.60953755  0.02776489  0.69265902    -0.01200
C2492       C  0.61435935  0.00110660  0.70233963    -0.09200
C2493       C  0.58949774  0.95692575  0.70103972    -0.18000
C2494       C  0.55904815  0.93812401  0.68990443     0.04400
C2495       C  0.55782877  0.96544424  0.67923719     0.18600
C2496       C  0.58265896  0.00972039  0.68076877    -0.19400
C2497       C  0.53008875  0.94851896  0.66752673    -0.20700
C2498       C  0.50200724  0.90513456  0.66650525    -0.19200
C2499       C  0.50017426  0.87761990  0.67735059     0.20000
C2500       C  0.52872035  0.89360876  0.68922161     0.02100
C2501       C  0.52388738  0.86472447  0.70027196    -0.14000
C2502       C  0.49139627  0.82223381  0.69971300    -0.11700
C2503       C  0.46371935  0.80677501  0.68793108     0.01600
C2504       C  0.46874659  0.83444843  0.67666950    -0.23900
H2505       H  0.63511834  0.01441187  0.71157435     0.09600
H2506       H  0.59383266  0.93830440  0.70914050     0.13200
H2507       H  0.57919010  0.03028272  0.67315900     0.11900
H2508       H  0.52944035  0.96910948  0.65924611     0.13100
H2509       H  0.48044066  0.89320829  0.65742505     0.12100
H2510       H  0.54365165  0.87443791  0.70974785     0.09200
H2511       H  0.48758313  0.80134754  0.70861047     0.12500
H2512       H  0.44666048  0.82277219  0.66771599     0.14300
C2513       C  0.68378626  0.22364780  0.79540311    -0.01200
C2514       C  0.66703970  0.18017199  0.79317338    -0.09200
C2515       C  0.66920246  0.16449627  0.77965393    -0.18000
C2516       C  0.68714033  0.19182758  0.76765532     0.04400
C2517       C  0.70432001  0.23600687  0.76994791     0.18600
C2518       C  0.70357174  0.25158312  0.78381769    -0.19400
C2519       C  0.72016400  0.26405895  0.75823419    -0.20700
C2520       C  0.71694442  0.24895181  0.74420287    -0.19200
C2521       C  0.69940076  0.20554322  0.74155705     0.20000
C2522       C  0.68632806  0.17664992  0.75333391     0.02100
C2523       C  0.67167911  0.13358629  0.75018840    -0.14000
C2524       C  0.66664123  0.11929502  0.73594399    -0.11700
C2525       C  0.67578353  0.14716665  0.72435174     0.01600
C2526       C  0.69315158  0.19050796  0.72720903    -0.23900
H2527       H  0.65153304  0.15797535  0.80193815     0.09600
H2528       H  0.65477720  0.13059666  0.77879187     0.13200
H2529       H  0.71597822  0.28521003  0.78538430     0.11900
H2530       H  0.73346443  0.29778281  0.75985987     0.13100
H2531       H  0.72772986  0.27134656  0.73533377     0.12100
H2532       H  0.66302795  0.11001310  0.75850956     0.09200
H2533       H  0.65278166  0.08565375  0.73396710     0.12500
H2534       H  0.69994891  0.21218439  0.71827504     0.14300
C2535       C  0.70276367  0.10602008  0.69778780    -0.01200
C2536       C  0.70673388  0.09798099  0.68320107    -0.09200
C2537       C  0.74543667  0.10676762  0.67739748    -0.18000
C2538       C  0.78228595  0.12425025  0.68596671     0.04400
C2539       C  0.77869205  0.13348272  0.70064435     0.18600
C2540       C  0.73931262  0.12434410  0.70638966    -0.19400
C2541       C  0.81447288  0.15166832  0.70952547    -0.20700
C2542       C  0.85342963  0.15987516  0.70427914    -0.19200
C2543       C  0.85775375  0.15010193  0.68999935     0.20000
C2544       C  0.82241971  0.13254770  0.68056706     0.02100
C2545       C  0.82875343  0.12332530  0.66625799    -0.14000
C2546       C  0.86814202  0.13028907  0.66165706    -0.11700
C2547       C  0.90284743  0.14670855  0.67106957     0.01600
C2548       C  0.89710077  0.15686650  0.68523713    -0.23900
H2549       H  0.67975509  0.08554612  0.67604170     0.09600
H2550       H  0.74547788  0.09972800  0.66611700     0.13200
H2551       H  0.73723064  0.13127172  0.71759723     0.11900
H2552       H  0.81224648  0.15924293  0.72067141     0.13100
H2553       H  0.88032769  0.17351530  0.71152141     0.12100
H2554       H  0.80370274  0.11010421  0.65838703     0.09200
H2555       H  0.87102015  0.12241819  0.65067015     0.12500
H2556       H  0.92295829  0.16852346  0.69286706     0.14300
loop_ 
_geom_bond_atom_site_label_1 
_geom_bond_atom_site_label_2 
_geom_bond_distance 
_geom_bond_site_symmetry_2 
_ccdc_geom_bond_type 
N1            C5   1.362       .  A
N1            C2   1.365       .  A
N1         C2535   1.455       .  S
C2            C3   1.385       .  A
C2         C2525   1.484       .  S
C3            C4   1.372       .  A
C3            H6   1.083       .  S
C4            C5   1.379       .  A
C4            H7   1.082       .  S
C5         C2491   1.487       .  S
N8           C12   1.364       .  A
N8            C9   1.366       .  A
N8         C2547   1.457       .  S
C9           C10   1.383       .  A
C9         C2469   1.483       .  S
C10          C11   1.368   1_655  A
C10          H13   1.083       .  S
C11          C12   1.382   1_455  A
C11          H14   1.082       .  S
C12        C2459   1.489       .  S
N15          C19   1.364       .  A
N15          C16   1.364       .  A
N15        C2425   1.456       .  S
C16          C17   1.381       .  A
C16        C2381   1.481       .  S
C17          C18   1.367       .  A
C17          H20   1.083       .  S
C18          C19   1.380       .  A
C18          H21   1.083       .  S
C19        C2403   1.477       .  S
N22          C26   1.363       .  A
N22          C23   1.360       .  A
N22        C2437   1.457       .  S
C23          C24   1.379       .  A
C23        C2371   1.476       .  S
C24          C25   1.371       .  A
C24          H27   1.083       .  S
C25          C26   1.383       .  A
C25          H28   1.083       .  S
C26        C2349   1.480       .  S
N29          C33   1.362       .  A
N29          C30   1.360       .  A
N29        C2327   1.447       .  S
C30          C31   1.380       .  A
C30        C2271   1.480       .  S
C31          C32   1.371       .  A
C31          H34   1.083       .  S
C32          C33   1.382       .  A
C32          H35   1.083       .  S
C33        C2293   1.482       .  S
N36          C40   1.360       .  A
N36          C37   1.360       .  A
N36        C2315   1.447       .  S
C37          C38   1.384       .  A
C37        C2227   1.478   1_655  S
C38          C39   1.373       .  A
C38          H41   1.083       .  S
C39          C40   1.381       .  A
C39          H42   1.082       .  S
C40        C2261   1.486       .  S
N43          C47   1.361       .  A
N43          C44   1.363   1_554  A
N43        C2205   1.445       .  S
C44          C45   1.383   1_556  A
C44        C2161   1.482       .  S
C45          C46   1.369       .  A
C45          H48   1.083   1_554  S
C46          C47   1.381       .  A
C46          H49   1.082       .  S
C47        C2195   1.490       .  S
N50          C54   1.360       .  A
N50          C51   1.361       .  A
N50        C2217   1.445       .  S
C51          C52   1.383       .  A
C51        C2139   1.483       .  S
C52          C53   1.372       .  A
C52          H55   1.083       .  S
C53          C54   1.382       .  A
C53          H56   1.082       .  S
C54        C2129   1.491       .  S
N57          C61   1.362   1_455  A
N57          C58   1.361   1_455  A
N57        C2095   1.448       .  S
C58          C59   1.381       .  A
C58        C2051   1.485   1_655  S
C59          C60   1.372       .  A
C59          H62   1.082       .  S
C60          C61   1.382       .  A
C60          H63   1.082       .  S
C61        C2073   1.483       .  S
N64          C68   1.359       .  A
N64          C65   1.361       .  A
N64        C2107   1.448       .  S
C65          C66   1.381       .  A
C65        C2041   1.481       .  S
C66          C67   1.371       .  A
C66          H69   1.082       .  S
C67          C68   1.381       .  A
C67          H70   1.082       .  S
C68        C2007   1.477       .  S
N71          C75   1.362       .  A
N71          C72   1.361       .  A
N71        C1985   1.454       .  S
C72          C73   1.380       .  A
C72        C1953   1.481       .  S
C73          C74   1.372       .  A
C73          H76   1.082       .  S
C74          C75   1.382       .  A
C74          H77   1.083       .  S
C75        C1975   1.479       .  S
N78          C82   1.361       .  A
N78          C79   1.360       .  A
N78        C1997   1.451       .  S
C79          C80   1.380       .  A
C79        C1909   1.478       .  S
C80          C81   1.371       .  A
C80          H83   1.082       .  S
C81          C82   1.382       .  A
C81          H84   1.083       .  S
C82        C1931   1.477       .  S
N85          C89   1.360       .  A
N85          C86   1.356       .  A
N85        C1875   1.448       .  S
C86          C87   1.380       .  A
C86        C1853   1.476       .  S
C87          C88   1.374       .  A
C87          H90   1.082       .  S
C88          C89   1.384       .  A
C88          H91   1.082       .  S
C89        C1831   1.478       .  S
N92          C96   1.358       .  A
N92          C93   1.358       .  A
N92        C1887   1.446       .  S
C93          C94   1.381       .  A
C93        C1809   1.478       .  S
C94          C95   1.371       .  A
C94          H97   1.082       .  S
C95          C96   1.381       .  A
C95          H98   1.082   1_565  S
C96        C1799   1.474       .  S
N99         C103   1.362       .  A
N99         C100   1.362       .  A
N99        C1765   1.450       .  S
C100        C101   1.383       .  A
C100       C1755   1.484       .  S
C101        C102   1.371       .  A
C101        H104   1.083       .  S
C102        C103   1.381       .  A
C102        H105   1.083       .  S
C103       C1721   1.479       .  S
N106        C110   1.362       .  A
N106        C107   1.364       .  A
N106       C1777   1.455       .  S
C107        C108   1.380       .  A
C107       C1689   1.482       .  S
C108        C109   1.370       .  A
C108        H111   1.082       .  S
C109        C110   1.382       .  A
C109        H112   1.083       .  S
C110       C1699   1.481       .  S
N113        C117   1.366       .  A
N113        C114   1.363       .  A
N113       C1655   1.453       .  S
C114        C115   1.379       .  A
C114       C1633   1.479       .  S
C115        C116   1.365       .  A
C115        H118   1.083       .  S
C116        C117   1.382       .  A
C116        H119   1.083       .  S
C117       C1611   1.481       .  S
N120        C124   1.361       .  A
N120        C121   1.359       .  A
N120       C1667   1.450       .  S
C121        C122   1.382       .  A
C121       C1579   1.480       .  S
C122        C123   1.370       .  A
C122        H125   1.082       .  S
C123        C124   1.381       .  A
C123        H126   1.083       .  S
C124       C1589   1.474       .  S
N127        C131   1.359       .  A
N127        C128   1.363       .  A
N127       C1557   1.450       .  S
C128        C129   1.384       .  A
C128       C1501   1.479       .  S
C129        C130   1.371       .  A
C129        H132   1.083       .  S
C130        C131   1.380       .  A
C130        H133   1.082       .  S
C131       C1523   1.480       .  S
N134        C138   1.365       .  A
N134        C135   1.363       .  A
N134       C1545   1.451       .  S
C135        C136   1.379       .  A
C135       C1457   1.483       .  S
C136        C137   1.368       .  A
C136        H139   1.082       .  S
C137        C138   1.383       .  A
C137        H140   1.083       .  S
C138       C1491   1.486       .  S
N141        C145   1.364       .  A
N141        C142   1.364       .  A
N141       C1447   1.453       .  S
C142        C143   1.383       .  A
C142       C1403   1.493       .  S
C143        C144   1.371       .  A
C143        H146   1.082       .  S
C144        C145   1.382       .  A
C144        H147   1.083       .  S
C145       C1413   1.485       .  S
N148        C152   1.364       .  A
N148        C149   1.363       .  A
N148       C1435   1.453       .  S
C149        C150   1.381       .  A
C149       C1381   1.484       .  S
C150        C151   1.369       .  A
C150        H153   1.083       .  S
C151        C152   1.381       .  A
C151        H154   1.083       .  S
C152       C1347   1.481       .  S
N155        C159   1.359       .  A
N155        C156   1.360       .  A
N155       C1325   1.449       .  S
C156        C157   1.384       .  A
C156       C1281   1.481       .  S
C157        C158   1.373       .  A
C157        H160   1.083       .  S
C158        C159   1.379       .  A
C158        H161   1.082       .  S
C159       C1315   1.481       .  S
N162        C166   1.363       .  A
N162        C163   1.364       .  A
N162       C1337   1.453   1_565  S
C163        C164   1.384       .  A
C163       C1237   1.488       .  S
C164        C165   1.371       .  A
C164        H167   1.083       .  S
C165        C166   1.381       .  A
C165        H168   1.082       .  S
C166       C1271   1.490       .  S
N169        C173   1.364       .  A
N169        C170   1.362       .  A
N169       C1215   1.457       .  S
C170        C171   1.379       .  A
C170       C1193   1.480       .  S
C171        C172   1.370       .  A
C171        H174   1.082       .  S
C172        C173   1.382       .  A
C172        H175   1.083       .  S
C173       C1171   1.480       .  S
N176        C180   1.364       .  A
N176        C177   1.362       .  A
N176       C1227   1.456       .  S
C177        C178   1.381       .  A
C177       C1149   1.484       .  S
C178        C179   1.370       .  A
C178        H181   1.082       .  S
C179        C180   1.382       .  A
C179        H182   1.083   1_565  S
C180       C1139   1.480       .  S
N183        C187   1.362       .  A
N183        C184   1.362       .  A
N183       C1117   1.448       .  S
C184        C185   1.381       .  A
C184       C1083   1.483       .  S
C185        C186   1.372       .  A
C185        H188   1.082       .  S
C186        C187   1.382       .  A
C186        H189   1.082       .  S
C187       C1061   1.481       .  S
N190        C194   1.365       .  A
N190        C191   1.363       .  A
N190       C1105   1.449   1_565  S
C191        C192   1.381       .  A
C191       C1051   1.483       .  S
C192        C193   1.372       .  A
C192        H195   1.083       .  S
C193        C194   1.381       .  A
C193        H196   1.082       .  S
C194       C1017   1.488       .  S
N197        C201   1.360       .  A
N197        C198   1.361       .  A
N197       C1007   1.453       .  S
C198        C199   1.384       .  A
C198        C951   1.477       .  S
C199        C200   1.369       .  A
C199        H202   1.083       .  S
C200        C201   1.378       .  A
C200        H203   1.082       .  S
C201        C973   1.477       .  S
N204        C208   1.358       .  A
N204        C205   1.363       .  A
N204        C995   1.453       .  S
C205        C206   1.384       .  A
C205        C919   1.478       .  S
C206        C207   1.370       .  A
C206        H209   1.083       .  S
C207        C208   1.379       .  A
C207        H210   1.082       .  S
C208        C929   1.478       .  S
N211        C215   1.359       .  A
N211        C212   1.360       .  A
N211        C885   1.444       .  S
C212        C213   1.380       .  A
C212        C853   1.476       .  S
C213        C214   1.370       .  A
C213        H216   1.082       .  S
C214        C215   1.381       .  A
C214        H217   1.082       .  S
C215        C875   1.479       .  S
N218        C222   1.360       .  A
N218        C219   1.359       .  A
N218        C897   1.447       .  S
C219        C220   1.381   1_655  A
C219        C819   1.481       .  S
C220        C221   1.372       .  A
C220        H223   1.082       .  S
C221        C222   1.383   1_455  A
C221        H224   1.083       .  S
C222        C797   1.480   1_655  S
N225        C229   1.362   1_556  A
N225        C226   1.358       .  A
N225        C775   1.455   1_556  S
C226        C227   1.379   1_556  A
C226        C753   1.474       .  S
C227        C228   1.370       .  A
C227        H230   1.082   1_554  S
C228        C229   1.383       .  A
C228        H231   1.083       .  S
C229        C743   1.476       .  S
N232        C236   1.362       .  A
N232        C233   1.361       .  A
N232        C787   1.454       .  S
C233        C234   1.381       .  A
C233        C687   1.482       .  S
C234        C235   1.372       .  A
C234        H237   1.083       .  S
C235        C236   1.382       .  A
C235        H238   1.083       .  S
C236        C709   1.477       .  S
N239        C243   1.363       .  A
N239        C240   1.363       .  A
N239        C677   1.452       .  S
C240        C241   1.382       .  A
C240        C621   1.480       .  S
C241        C242   1.370       .  A
C241        H244   1.083       .  S
C242        C243   1.381       .  A
C242        H245   1.082       .  S
C243        C655   1.485       .  S
N246        C250   1.363   1_455  A
N246        C247   1.366       .  A
N246        C665   1.453       .  S
C247        C248   1.384   1_455  A
C247        C589   1.484       .  S
C248        C249   1.369       .  A
C248        H251   1.083       .  S
C249        C250   1.379       .  A
C249        H252   1.082       .  S
C250        C599   1.485       .  S
O253        C264   1.291       .  A
O253       Eu289   2.459       .  S
O254        C265   1.295       .  A
O254       Eu288   2.488       .  S
O255        C266   1.294       .  A
O255       Eu261   2.474       .  S
O256        C267   1.295       .  A
O256       Eu261   2.484       .  S
O257        C267   1.292       .  A
O257       Eu291   2.465       .  S
O258        C266   1.293       .  A
O258       Eu290   2.475       .  S
O259        C265   1.293       .  A
O259       Eu261   2.461       .  S
O260        C264   1.294       .  A
O260       Eu261   2.483       .  S
Eu261       O271   2.359       .  S
Eu261       O263   2.355       .  S
Eu261       O262   2.362       .  S
Eu261       O269   2.365       .  S
O262       Eu291   2.354       .  S
O262       Eu288   2.356       .  S
O263       Eu289   2.354       .  S
O263       Eu290   2.358       .  S
C264       C2513   1.486       .  S
C265       C1843   1.485       .  S
C266       C1677   1.487       .  S
C267        C611   1.480       .  S
H268        O269   0.965       .  S
O269       Eu290   2.364       .  S
O269       Eu288   2.364       .  S
H270        O271   0.966       .  S
O271       Eu289   2.361       .  S
O271       Eu291   2.369       .  S
O272        C295   1.295       .  A
O272       Eu288   2.481       .  S
O273        C296   1.292       .  A
O273       Eu289   2.465       .  S
O274        C297   1.294       .  A
O274       Eu290   2.475       .  S
O275        C298   1.292       .  A
O275       Eu291   2.468       .  S
O276        C299   1.291       .  A
O276       Eu291   2.459       .  S
O277        C300   1.296       .  A
O277       Eu290   2.485       .  S
O278        C301   1.295       .  A
O278       Eu292   2.487       .  S
O279        C302   1.292       .  A
O279       Eu292   2.462       .  S
O280        C301   1.291       .  A
O280       Eu290   2.460       .  S
O281        C302   1.294       .  A
O281       Eu291   2.481       .  S
O282        C297   1.292       .  A
O282       Eu288   2.463       .  S
O283        C300   1.292       .  A
O283       Eu289   2.467       .  S
O284        C299   1.291       .  A
O284       Eu289   2.460       .  S
O285        C298   1.291       .  A
O285       Eu288   2.459       .  S
O286        C295   1.292       .  A
O286       Eu292   2.465       .  S
O287        C296   1.292       .  A
O287       Eu292   2.460       .  S
Eu288       O306   2.360       .  S
Eu288       O294   2.355       .  S
Eu289       O293   2.348       .  S
Eu289       O304   2.366       .  S
Eu290       O304   2.366       .  S
Eu290       O294   2.359       .  S
Eu291       O293   2.348       .  S
Eu291       O306   2.359       .  S
Eu292       O293   2.350       .  S
Eu292       O304   2.363       .  S
Eu292       O306   2.360       .  S
Eu292       O294   2.352       .  S
C295       C2173   1.485       .  S
C296       C1787   1.481       .  S
C297       C2337   1.482       .  S
C298        C765   1.477       .  S
C299       C2415   1.471       .  S
C300       C1095   1.489       .  S
C301        C643   1.479       .  S
C302       C1513   1.486       .  S
H303        O304   0.967       .  S
H305        O306   0.965       .  S
O307        C318   1.292       .  A
O307       Eu343   2.461   1_556  S
O308        C319   1.292       .  A
O308       Eu342   2.462   1_655  S
O309        C320   1.293       .  A
O309       Eu315   2.473       .  S
O310        C321   1.293   1_655  A
O310       Eu315   2.467   1_546  S
O311        C321   1.294       .  A
O311       Eu345   2.478   1_556  S
O312        C320   1.294       .  A
O312       Eu344   2.473       .  S
O313        C319   1.292       .  A
O313       Eu315   2.461   1_545  S
O314        C318   1.291       .  A
O314       Eu315   2.457   1_556  S
Eu315       O325   2.353   1_554  S
Eu315       O317   2.362       .  S
Eu315       O316   2.350   1_665  S
Eu315       O323   2.356       .  S
O316       Eu345   2.353       .  S
O316       Eu342   2.356       .  S
O317       Eu343   2.362       .  S
O317       Eu344   2.356       .  S
C318       C2359   1.471       .  S
C319        C731   1.481       .  S
C320       C1469   1.483       .  S
C321        C577   1.484       .  S
H322        O323   0.965       .  S
O323       Eu344   2.371       .  S
O323       Eu342   2.366   1_665  S
H324        O325   0.963       .  S
O325       Eu343   2.351   1_556  S
O325       Eu345   2.351   1_666  S
O326        C349   1.292       .  A
O326       Eu342   2.462       .  S
O327        C350   1.293       .  A
O327       Eu343   2.480       .  S
O328        C351   1.292       .  A
O328       Eu344   2.464       .  S
O329        C352   1.292       .  A
O329       Eu345   2.467       .  S
O330        C353   1.293       .  A
O330       Eu345   2.472   1_566  S
O331        C354   1.295       .  A
O331       Eu344   2.484       .  S
O332        C355   1.291       .  A
O332       Eu346   2.463   1_655  S
O333        C356   1.290       .  A
O333       Eu346   2.454       .  S
O334        C355   1.294       .  A
O334       Eu344   2.479       .  S
O335        C356   1.291       .  A
O335       Eu345   2.457   1_565  S
O336        C351   1.295   1_545  A
O336       Eu342   2.483   1_655  S
O337        C354   1.290       .  A
O337       Eu343   2.458       .  S
O338        C353   1.293   1_655  A
O338       Eu343   2.469   1_556  S
O339        C352   1.293       .  A
O339       Eu342   2.474       .  S
O340        C349   1.294   1_565  A
O340       Eu346   2.478       .  S
O341        C350   1.291   1_455  A
O341       Eu346   2.455       .  S
Eu342       O360   2.370       .  S
Eu342       O348   2.345   1_445  S
Eu343       O347   2.344   1_655  S
Eu343       O358   2.368       .  S
Eu344       O358   2.365       .  S
Eu344       O348   2.350       .  S
Eu345       O347   2.348   1_545  S
Eu345       O360   2.377       .  S
Eu346       O347   2.347       .  S
Eu346       O358   2.366   1_455  S
Eu346       O360   2.370   1_565  S
Eu346       O348   2.336   1_455  S
C349       C1941   1.484       .  S
C350        C721   1.481   1_655  S
C351       C1249   1.482   1_565  S
C352       C2117   1.476       .  S
C353       C1821   1.481       .  S
C354       C2183   1.477       .  S
C355        C831   1.478       .  S
C356       C1535   1.467       .  S
H357        O358   0.966       .  S
H359        O360   0.972       .  S
O361        C372   1.294       .  A
O361       Eu397   2.477       .  S
O362        C373   1.295       .  A
O362       Eu396   2.483       .  S
O363        C374   1.293       .  A
O363       Eu369   2.464       .  S
O364        C375   1.295       .  A
O364       Eu369   2.487       .  S
O365        C375   1.290       .  A
O365       Eu399   2.446       .  S
O366        C374   1.294       .  A
O366       Eu398   2.469       .  S
O367        C373   1.292       .  A
O367       Eu369   2.459       .  S
O368        C372   1.292       .  A
O368       Eu369   2.463       .  S
Eu369       O379   2.361       .  S
Eu369       O371   2.358       .  S
Eu369       O370   2.355       .  S
Eu369       O377   2.364       .  S
O370       Eu399   2.358       .  S
O370       Eu396   2.352       .  S
O371       Eu397   2.349       .  S
O371       Eu398   2.355       .  S
C372       C2305   1.487       .  S
C373       C1127   1.487       .  S
C374        C963   1.484       .  S
C375       C1359   1.482       .  S
H376        O377   0.967       .  S
O377       Eu398   2.372       .  S
O377       Eu396   2.363       .  S
H378        O379   0.966       .  S
O379       Eu397   2.362       .  S
O379       Eu399   2.365       .  S
O380        C403   1.292       .  A
O380       Eu396   2.467       .  S
O381        C404   1.293       .  A
O381       Eu397   2.472       .  S
O382        C405   1.293       .  A
O382       Eu398   2.472       .  S
O383        C406   1.292       .  A
O383       Eu399   2.468       .  S
O384        C407   1.294       .  A
O384       Eu399   2.480       .  S
O385        C408   1.294       .  A
O385       Eu398   2.481       .  S
O386        C409   1.294       .  A
O386       Eu400   2.477       .  S
O387        C410   1.293       .  A
O387       Eu400   2.467       .  S
O388        C409   1.295       .  A
O388       Eu398   2.480       .  S
O389        C410   1.291       .  A
O389       Eu399   2.460       .  S
O390        C405   1.290       .  A
O390       Eu396   2.449       .  S
O391        C408   1.290       .  A
O391       Eu397   2.455       .  S
O392        C407   1.292       .  A
O392       Eu397   2.460       .  S
O393        C406   1.295       .  A
O393       Eu396   2.482       .  S
O394        C403   1.291       .  A
O394       Eu400   2.460       .  S
O395        C404   1.291       .  A
O395       Eu400   2.451       .  S
Eu396       O414   2.354       .  S
Eu396       O402   2.357       .  S
Eu397       O401   2.358       .  S
Eu397       O412   2.364       .  S
Eu398       O412   2.355       .  S
Eu398       O402   2.353       .  S
Eu399       O401   2.354       .  S
Eu399       O414   2.356       .  S
Eu400       O401   2.354       .  S
Eu400       O412   2.361       .  S
Eu400       O414   2.357       .  S
Eu400       O402   2.345       .  S
C403       C1897   1.473       .  S
C404       C1183   1.474       .  S
C405       C2019   1.474       .  S
C406       C1293   1.488       .  S
C407       C2085   1.484       .  S
C408       C1645   1.477       .  S
C409       C1425   1.491       .  S
C410        C841   1.480       .  S
H411        O412   0.967       .  S
H413        O414   0.965       .  S
O415        C426   1.295       .  A
O415       Eu451   2.490       .  S
O416        C427   1.294       .  A
O416       Eu450   2.478       .  S
O417        C428   1.298       .  A
O417       Eu423   2.507       .  S
O418        C429   1.294       .  A
O418       Eu423   2.478       .  S
O419        C429   1.292       .  A
O419       Eu453   2.465       .  S
O420        C428   1.292       .  A
O420       Eu452   2.461       .  S
O421        C427   1.287       .  A
O421       Eu423   2.437       .  S
O422        C426   1.289       .  A
O422       Eu423   2.448       .  S
Eu423       O433   2.369       .  S
Eu423       O425   2.353       .  S
Eu423       O424   2.351       .  S
Eu423       O431   2.361       .  S
O424       Eu453   2.350       .  S
O424       Eu450   2.348       .  S
O425       Eu451   2.352       .  S
O425       Eu452   2.356       .  S
C426       C2503   1.479       .  S
C427       C1865   1.469       .  S
C428       C1029   1.493       .  S
C429       C2393   1.480       .  S
H430        O431   0.965       .  S
O431       Eu452   2.365       .  S
O431       Eu450   2.365       .  S
H432        O433   0.970       .  S
O433       Eu451   2.361       .  S
O433       Eu453   2.371       .  S
O434        C457   1.294       .  A
O434       Eu450   2.480       .  S
O435        C458   1.292       .  A
O435       Eu451   2.469       .  S
O436        C459   1.291       .  A
O436       Eu452   2.457       .  S
O437        C460   1.292       .  A
O437       Eu453   2.461       .  S
O438        C461   1.295       .  A
O438       Eu453   2.484       .  S
O439        C462   1.293       .  A
O439       Eu452   2.470       .  S
O440        C463   1.291       .  A
O440       Eu454   2.451       .  S
O441        C464   1.293       .  A
O441       Eu454   2.476       .  S
O442        C463   1.295       .  A
O442       Eu452   2.484       .  S
O443        C464   1.292       .  A
O443       Eu453   2.463       .  S
O444        C459   1.294       .  A
O444       Eu450   2.472       .  S
O445        C462   1.290       .  A
O445       Eu451   2.456       .  S
O446        C461   1.290       .  A
O446       Eu451   2.447       .  S
O447        C460   1.294       .  A
O447       Eu450   2.478       .  S
O448        C457   1.291       .  A
O448       Eu454   2.462       .  S
O449        C458   1.291       .  A
O449       Eu454   2.461       .  S
Eu450       O468   2.366       .  S
Eu450       O456   2.358       .  S
Eu451       O455   2.356       .  S
Eu451       O466   2.359       .  S
Eu452       O466   2.352       .  S
Eu452       O456   2.358       .  S
Eu453       O455   2.345       .  S
Eu453       O468   2.362       .  S
Eu454       O455   2.349       .  S
Eu454       O466   2.357       .  S
Eu454       O468   2.360       .  S
Eu454       O456   2.356       .  S
C457       C2447   1.476       .  S
C458       C1567   1.471       .  S
C459       C1711   1.481       .  S
C460        C633   1.485       .  S
C461       C1733   1.487       .  S
C462        C907   1.477       .  S
C463       C2239   1.488       .  S
C464       C1073   1.480       .  S
H465        O466   0.965       .  S
H467        O468   0.966       .  S
O469        C480   1.294       .  A
O469       Eu505   2.476       .  S
O470        C481   1.292       .  A
O470       Eu504   2.471       .  S
O471        C482   1.292       .  A
O471       Eu477   2.464       .  S
O472        C483   1.291       .  A
O472       Eu477   2.462       .  S
O473        C483   1.292       .  A
O473       Eu507   2.463       .  S
O474        C482   1.295       .  A
O474       Eu506   2.485       .  S
O475        C481   1.293       .  A
O475       Eu477   2.474       .  S
O476        C480   1.294       .  A
O476       Eu477   2.475       .  S
Eu477       O487   2.366       .  S
Eu477       O479   2.350       .  S
Eu477       O478   2.355       .  S
Eu477       O485   2.362       .  S
O478       Eu507   2.350       .  S
O478       Eu504   2.351       .  S
O479       Eu505   2.357       .  S
O479       Eu506   2.352       .  S
C480       C2151   1.491       .  S
C481       C1259   1.477       .  S
C482       C1479   1.485       .  S
C483        C863   1.475       .  S
H484        O485   0.966       .  S
O485       Eu506   2.364       .  S
O485       Eu504   2.364       .  S
H486        O487   0.966       .  S
O487       Eu505   2.364       .  S
O487       Eu507   2.364       .  S
O488        C511   1.291       .  A
O488       Eu504   2.457       .  S
O489        C512   1.295       .  A
O489       Eu505   2.484       .  S
O490        C513   1.292       .  A
O490       Eu506   2.469       .  S
O491        C514   1.290       .  A
O491       Eu507   2.452       .  S
O492        C515   1.291       .  A
O492       Eu507   2.457       .  S
O493        C516   1.293       .  A
O493       Eu506   2.469       .  S
O494        C517   1.293       .  A
O494       Eu508   2.473       .  S
O495        C518   1.292       .  A
O495       Eu508   2.467       .  S
O496        C517   1.292       .  A
O496       Eu506   2.465       .  S
O497        C518   1.291       .  A
O497       Eu507   2.465       .  S
O498        C513   1.293       .  A
O498       Eu504   2.463       .  S
O499        C516   1.292       .  A
O499       Eu505   2.467       .  S
O500        C515   1.294       .  A
O500       Eu505   2.472       .  S
O501        C514   1.295       .  A
O501       Eu504   2.483       .  S
O502        C511   1.293       .  A
O502       Eu508   2.476       .  S
O503        C512   1.291       .  A
O503       Eu508   2.456       .  S
Eu504       O522   2.348       .  S
Eu504       O510   2.362       .  S
Eu505       O509   2.357       .  S
Eu505       O520   2.364       .  S
Eu506       O520   2.365       .  S
Eu506       O510   2.362       .  S
Eu507       O509   2.355       .  S
Eu507       O522   2.348       .  S
Eu508       O509   2.358       .  S
Eu508       O520   2.363       .  S
Eu508       O522   2.348       .  S
Eu508       O510   2.360       .  S
C511       C2029   1.475       .  S
C512       C1303   1.481       .  S
C513       C1919   1.479       .  S
C514       C1205   1.480       .  S
C515       C1963   1.481       .  S
C516        C699   1.476       .  S
C517        C809   1.480       .  S
C518       C1369   1.474       .  S
H519        O520   0.966       .  S
H521        O522   0.965       .  S
O523        C534   1.294       .  A
O523       Eu559   2.475   1_655  S
O524        C535   1.291       .  A
O524       Eu558   2.462       .  S
O525        C536   1.293       .  A
O525       Eu531   2.472       .  S
O526        C537   1.292       .  A
O526       Eu531   2.462       .  S
O527        C537   1.293       .  A
O527       Eu561   2.474       .  S
O528        C536   1.291       .  A
O528       Eu560   2.454       .  S
O529        C535   1.290       .  A
O529       Eu531   2.449       .  S
O530        C534   1.292   1_565  A
O530       Eu531   2.466       .  S
Eu531       O541   2.352       .  S
Eu531       O533   2.345       .  S
Eu531       O532   2.356       .  S
Eu531       O539   2.363       .  S
O532       Eu561   2.349       .  S
O532       Eu558   2.352       .  S
O533       Eu559   2.352   1_665  S
O533       Eu560   2.349       .  S
C534       C2481   1.483       .  S
C535       C1601   1.468       .  S
C536        C985   1.477       .  S
C537       C1743   1.479       .  S
H538        O539   0.966       .  S
O539       Eu560   2.358       .  S
O539       Eu558   2.367       .  S
H540        O541   0.965       .  S
O541       Eu559   2.369   1_665  S
O541       Eu561   2.356       .  S
O542        C565   1.291   1_655  A
O542       Eu558   2.464       .  S
O543        C566   1.296       .  A
O543       Eu559   2.490       .  S
O544        C567   1.292       .  A
O544       Eu560   2.468       .  S
O545        C568   1.294       .  A
O545       Eu561   2.478       .  S
O546        C569   1.293       .  A
O546       Eu561   2.466   1_455  S
O547        C570   1.292       .  A
O547       Eu560   2.468   1_545  S
O548        C571   1.291       .  A
O548       Eu562   2.460   1_545  S
O549        C572   1.293       .  A
O549       Eu562   2.473       .  S
O550        C571   1.292   1_655  A
O550       Eu560   2.468   1_545  S
O551        C572   1.289       .  A
O551       Eu561   2.445   1_455  S
O552        C567   1.291       .  A
O552       Eu558   2.459       .  S
O553        C570   1.293       .  A
O553       Eu559   2.470   1_655  S
O554        C569   1.294   1_545  A
O554       Eu559   2.475       .  S
O555        C568   1.293       .  A
O555       Eu558   2.463       .  S
O556        C565   1.293       .  A
O556       Eu562   2.475       .  S
O557        C566   1.290       .  A
O557       Eu562   2.447   1_545  S
Eu558       O576   2.359       .  S
Eu558       O564   2.341       .  S
Eu559       O563   2.353   1_545  S
Eu559       O574   2.374       .  S
Eu560       O574   2.368   1_665  S
Eu560       O564   2.342       .  S
Eu561       O563   2.359   1_655  S
Eu561       O576   2.362       .  S
Eu562       O563   2.354       .  S
Eu562       O574   2.371   1_565  S
Eu562       O576   2.357   1_455  S
Eu562       O564   2.339   1_455  S
C565       C2063   1.479       .  S
C566       C1623   1.478       .  S
C567       C1161   1.474       .  S
C568       C2283   1.489       .  S
C569       C1039   1.480   1_565  S
C570       C2249   1.475       .  S
C571       C1391   1.472       .  S
C572        C941   1.471       .  S
H573        O574   0.967       .  S
H575        O576   0.965   1_455  S
C577        C578   1.402       .  A
C577        C582   1.400       .  A
C578        C579   1.403       .  A
C578        H591   1.084       .  S
C579        C580   1.417       .  A
C579        H592   1.078       .  S
C580        C586   1.437       .  A
C580        C581   1.423       .  A
C581        C583   1.399       .  A
C581        C582   1.407       .  A
C582        H593   1.085   1_455  S
C583        C584   1.390       .  A
C583        H594   1.084   1_455  S
C584        C585   1.399       .  A
C584        H595   1.084   1_455  S
C585        C586   1.424       .  A
C585        C590   1.408       .  A
C586        C587   1.417       .  A
C587        C588   1.403       .  A
C587        H596   1.078       .  S
C588        C589   1.402       .  A
C588        H597   1.083       .  S
C589        C590   1.401       .  A
C590        H598   1.085       .  S
C599        C600   1.400       .  A
C599        C604   1.402       .  A
C600        C601   1.402       .  A
C600        H613   1.083       .  S
C601        C602   1.417       .  A
C601        H614   1.078       .  S
C602        C608   1.435       .  A
C602        C603   1.422       .  A
C603        C605   1.400       .  A
C603        C604   1.407       .  A
C604        H615   1.085       .  S
C605        C606   1.391       .  A
C605        H616   1.084       .  S
C606        C607   1.400       .  A
C606        H617   1.084       .  S
C607        C608   1.425       .  A
C607        C612   1.410       .  A
C608        C609   1.416       .  A
C609        C610   1.401       .  A
C609        H618   1.078       .  S
C610        C611   1.400       .  A
C610        H619   1.084       .  S
C611        C612   1.400       .  A
C612        H620   1.085       .  S
C621        C622   1.399       .  A
C621        C626   1.401       .  A
C622        C623   1.402       .  A
C622        H635   1.083       .  S
C623        C624   1.417       .  A
C623        H636   1.078       .  S
C624        C630   1.435       .  A
C624        C625   1.423       .  A
C625        C627   1.400       .  A
C625        C626   1.407       .  A
C626        H637   1.085       .  S
C627        C628   1.390       .  A
C627        H638   1.084       .  S
C628        C629   1.399       .  A
C628        H639   1.084       .  S
C629        C630   1.423       .  A
C629        C634   1.407       .  A
C630        C631   1.416       .  A
C631        C632   1.402       .  A
C631        H640   1.078       .  S
C632        C633   1.402       .  A
C632        H641   1.083       .  S
C633        C634   1.402       .  A
C634        H642   1.085       .  S
C643        C644   1.399       .  A
C643        C648   1.401       .  A
C644        C645   1.400       .  A
C644        H657   1.084       .  S
C645        C646   1.416       .  A
C645        H658   1.078       .  S
C646        C652   1.435       .  A
C646        C647   1.425       .  A
C647        C649   1.401       .  A
C647        C648   1.412       .  A
C648        H659   1.085       .  S
C649        C650   1.393       .  A
C649        H660   1.084       .  S
C650        C651   1.400       .  A
C650        H661   1.084       .  S
C651        C652   1.422       .  A
C651        C656   1.408       .  A
C652        C653   1.417       .  A
C653        C654   1.401       .  A
C653        H662   1.078       .  S
C654        C655   1.400       .  A
C654        H663   1.083       .  S
C655        C656   1.403       .  A
C656        H664   1.085       .  S
C665        C666   1.406       .  A
C665        C670   1.404       .  A
C666        C667   1.396       .  A
C666        H679   1.082       .  S
C667        C668   1.411       .  A
C667        H680   1.077       .  S
C668        C674   1.437       .  A
C668        C669   1.426       .  A
C669        C671   1.400       .  A
C669        C670   1.416       .  A
C670        H681   1.083       .  S
C671        C672   1.394       .  A
C671        H682   1.084       .  S
C672        C673   1.402       .  A
C672        H683   1.084       .  S
C673        C674   1.420       .  A
C673        C678   1.409       .  A
C674        C675   1.419       .  A
C675        C676   1.403       .  A
C675        H684   1.077       .  S
C676        C677   1.401       .  A
C676        H685   1.081       .  S
C677        C678   1.408       .  A
C678        H686   1.084       .  S
C687        C688   1.401       .  A
C687        C692   1.400       .  A
C688        C689   1.401       .  A
C688        H701   1.084       .  S
C689        C690   1.416       .  A
C689        H702   1.078       .  S
C690        C696   1.434       .  A
C690        C691   1.423       .  A
C691        C693   1.399       .  A
C691        C692   1.407       .  A
C692        H703   1.085       .  S
C693        C694   1.390       .  A
C693        H704   1.084       .  S
C694        C695   1.399       .  A
C694        H705   1.084       .  S
C695        C696   1.423       .  A
C695        C700   1.405       .  A
C696        C697   1.417       .  A
C697        C698   1.402       .  A
C697        H706   1.078       .  S
C698        C699   1.400       .  A
C698        H707   1.084       .  S
C699        C700   1.398       .  A
C700        H708   1.085       .  S
C709        C710   1.397       .  A
C709        C714   1.402       .  A
C710        C711   1.392       .  A
C710        H723   1.084       .  S
C711        C712   1.414       .  A
C711        H724   1.077       .  S
C712        C718   1.430       .  A
C712        C713   1.423       .  A
C713        C715   1.401   1_554  A
C713        C714   1.411       .  A
C714        H725   1.084       .  S
C715        C716   1.396       .  A
C715        H726   1.084       .  S
C716        C717   1.402   1_556  A
C716        H727   1.084       .  S
C717        C718   1.423       .  A
C717        C722   1.414       .  A
C718        C719   1.413       .  A
C719        C720   1.392       .  A
C719        H728   1.077       .  S
C720        C721   1.398       .  A
C720        H729   1.084   1_455  S
C721        C722   1.405       .  A
C722        H730   1.084   1_554  S
C731        C732   1.400       .  A
C731        C736   1.402       .  A
C732        C733   1.400       .  A
C732        H745   1.083       .  S
C733        C734   1.416       .  A
C733        H746   1.078       .  S
C734        C740   1.432       .  A
C734        C735   1.422       .  A
C735        C737   1.399   1_554  A
C735        C736   1.404       .  A
C736        H747   1.085   1_554  S
C737        C738   1.389       .  A
C737        H748   1.084       .  S
C738        C739   1.400   1_556  A
C738        H749   1.084       .  S
C739        C740   1.423       .  A
C739        C744   1.405   1_554  A
C740        C741   1.417       .  A
C741        C742   1.400       .  A
C741        H750   1.077       .  S
C742        C743   1.397       .  A
C742        H751   1.083       .  S
C743        C744   1.400   1_554  A
C744        H752   1.085       .  S
C753        C754   1.396       .  A
C753        C758   1.401       .  A
C754        C755   1.396       .  A
C754        H767   1.084       .  S
C755        C756   1.416       .  A
C755        H768   1.077       .  S
C756        C762   1.429       .  A
C756        C757   1.422       .  A
C757        C759   1.401       .  A
C757        C758   1.407       .  A
C758        H769   1.085       .  S
C759        C760   1.393       .  A
C759        H770   1.084       .  S
C760        C761   1.401       .  A
C760        H771   1.084       .  S
C761        C762   1.423       .  A
C761        C766   1.409       .  A
C762        C763   1.413       .  A
C763        C764   1.394       .  A
C763        H772   1.078       .  S
C764        C765   1.399       .  A
C764        H773   1.084       .  S
C765        C766   1.403       .  A
C766        H774   1.085       .  S
C775        C776   1.408       .  A
C775        C780   1.405       .  A
C776        C777   1.397       .  A
C776        H789   1.081   1_554  S
C777        C778   1.412       .  A
C777        H790   1.078       .  S
C778        C784   1.434   1_655  A
C778        C779   1.422       .  A
C779        C781   1.400   1_655  A
C779        C780   1.410       .  A
C780        H791   1.081       .  S
C781        C782   1.392       .  A
C781        H792   1.084       .  S
C782        C783   1.401       .  A
C782        H793   1.084       .  S
C783        C784   1.420       .  A
C783        C788   1.408       .  A
C784        C785   1.415       .  A
C785        C786   1.400       .  A
C785        H794   1.078   1_455  S
C786        C787   1.404       .  A
C786        H795   1.077       .  S
C787        C788   1.408       .  A
C788        H796   1.083       .  S
C797        C798   1.399       .  A
C797        C802   1.401       .  A
C798        C799   1.398       .  A
C798        H811   1.084   1_455  S
C799        C800   1.415       .  A
C799        H812   1.078       .  S
C800        C806   1.433       .  A
C800        C801   1.422       .  A
C801        C803   1.400       .  A
C801        C802   1.409       .  A
C802        H813   1.084       .  S
C803        C804   1.392       .  A
C803        H814   1.084       .  S
C804        C805   1.400       .  A
C804        H815   1.084       .  S
C805        C806   1.424       .  A
C805        C810   1.410       .  A
C806        C807   1.415       .  A
C807        C808   1.397       .  A
C807        H816   1.077       .  S
C808        C809   1.400       .  A
C808        H817   1.084       .  S
C809        C810   1.401       .  A
C810        H818   1.085       .  S
C819        C820   1.399       .  A
C819        C824   1.401       .  A
C820        C821   1.399       .  A
C820        H833   1.083       .  S
C821        C822   1.417       .  A
C821        H834   1.077       .  S
C822        C828   1.434       .  A
C822        C823   1.423       .  A
C823        C825   1.400       .  A
C823        C824   1.408       .  A
C824        H835   1.085       .  S
C825        C826   1.392       .  A
C825        H836   1.084       .  S
C826        C827   1.400       .  A
C826        H837   1.084       .  S
C827        C828   1.424       .  A
C827        C832   1.410       .  A
C828        C829   1.416       .  A
C829        C830   1.399       .  A
C829        H838   1.078       .  S
C830        C831   1.399       .  A
C830        H839   1.084       .  S
C831        C832   1.401       .  A
C832        H840   1.085       .  S
C841        C842   1.402       .  A
C841        C846   1.399       .  A
C842        C843   1.402       .  A
C842        H855   1.083       .  S
C843        C844   1.417       .  A
C843        H856   1.078       .  S
C844        C850   1.434       .  A
C844        C845   1.423       .  A
C845        C847   1.398       .  A
C845        C846   1.404       .  A
C846        H857   1.085       .  S
C847        C848   1.388       .  A
C847        H858   1.084       .  S
C848        C849   1.399       .  A
C848        H859   1.084       .  S
C849        C850   1.423       .  A
C849        C854   1.404       .  A
C850        C851   1.418       .  A
C851        C852   1.403       .  A
C851        H860   1.078       .  S
C852        C853   1.398       .  A
C852        H861   1.083       .  S
C853        C854   1.398       .  A
C854        H862   1.085       .  S
C863        C864   1.398       .  A
C863        C868   1.401       .  A
C864        C865   1.399       .  A
C864        H877   1.084       .  S
C865        C866   1.416       .  A
C865        H878   1.077       .  S
C866        C872   1.432       .  A
C866        C867   1.423       .  A
C867        C869   1.400       .  A
C867        C868   1.406       .  A
C868        H879   1.085       .  S
C869        C870   1.391       .  A
C869        H880   1.084       .  S
C870        C871   1.400       .  A
C870        H881   1.084       .  S
C871        C872   1.423       .  A
C871        C876   1.408       .  A
C872        C873   1.416       .  A
C873        C874   1.398       .  A
C873        H882   1.077       .  S
C874        C875   1.398       .  A
C874        H883   1.083       .  S
C875        C876   1.401       .  A
C876        H884   1.085       .  S
C885        C886   1.398       .  A
C885        C890   1.404       .  A
C886        C887   1.402       .  A
C886        H899   1.081       .  S
C887        C888   1.419       .  A
C887        H900   1.077       .  S
C888        C894   1.433       .  A
C888        C889   1.420       .  A
C889        C891   1.400       .  A
C889        C890   1.404       .  A
C890        H901   1.084       .  S
C891        C892   1.391       .  A
C891        H902   1.084       .  S
C892        C893   1.399       .  A
C892        H903   1.084       .  S
C893        C894   1.425       .  A
C893        C898   1.410       .  A
C894        C895   1.412       .  A
C895        C896   1.396       .  A
C895        H904   1.077       .  S
C896        C897   1.404       .  A
C896        H905   1.083       .  S
C897        C898   1.400       .  A
C898        H906   1.082       .  S
C907        C908   1.398       .  A
C907        C912   1.403       .  A
C908        C909   1.396       .  A
C908        H921   1.084       .  S
C909        C910   1.416       .  A
C909        H922   1.077       .  S
C910        C916   1.430       .  A
C910        C911   1.423       .  A
C911        C913   1.401       .  A
C911        C912   1.408       .  A
C912        H923   1.085       .  S
C913        C914   1.393       .  A
C913        H924   1.084       .  S
C914        C915   1.401       .  A
C914        H925   1.084       .  S
C915        C916   1.423       .  A
C915        C920   1.409       .  A
C916        C917   1.414       .  A
C917        C918   1.395       .  A
C917        H926   1.077       .  S
C918        C919   1.399       .  A
C918        H927   1.084       .  S
C919        C920   1.402       .  A
C920        H928   1.084       .  S
C929        C930   1.396       .  A
C929        C934   1.403       .  A
C930        C931   1.394       .  A
C930        H943   1.083       .  S
C931        C932   1.414       .  A
C931        H944   1.077       .  S
C932        C938   1.428       .  A
C932        C933   1.423       .  A
C933        C935   1.402       .  A
C933        C934   1.409       .  A
C934        H945   1.085       .  S
C935        C936   1.394       .  A
C935        H946   1.084       .  S
C936        C937   1.401       .  A
C936        H947   1.084       .  S
C937        C938   1.421       .  A
C937        C942   1.407       .  A
C938        C939   1.415       .  A
C939        C940   1.395       .  A
C939        H948   1.078       .  S
C940        C941   1.395       .  A
C940        H949   1.084       .  S
C941        C942   1.403       .  A
C942        H950   1.085       .  S
C951        C952   1.396       .  A
C951        C956   1.401       .  A
C952        C953   1.400       .  A
C952        H965   1.083       .  S
C953        C954   1.418       .  A
C953        H966   1.077       .  S
C954        C960   1.432       .  A
C954        C955   1.422       .  A
C955        C957   1.400       .  A
C955        C956   1.405       .  A
C956        H967   1.085       .  S
C957        C958   1.391       .  A
C957        H968   1.084       .  S
C958        C959   1.400       .  A
C958        H969   1.084       .  S
C959        C960   1.423       .  A
C959        C964   1.408       .  A
C960        C961   1.414       .  A
C961        C962   1.398       .  A
C961        H970   1.078       .  S
C962        C963   1.401       .  A
C962        H971   1.083       .  S
C963        C964   1.403       .  A
C964        H972   1.085       .  S
C973        C974   1.398       .  A
C973        C978   1.398       .  A
C974        C975   1.400       .  A
C974        H987   1.083       .  S
C975        C976   1.416       .  A
C975        H988   1.078       .  S
C976        C982   1.433   1_545  A
C976        C977   1.424       .  A
C977        C979   1.399   1_545  A
C977        C978   1.405       .  A
C978        H989   1.085       .  S
C979        C980   1.388       .  A
C979        H990   1.084       .  S
C980        C981   1.399       .  A
C980        H991   1.084       .  S
C981        C982   1.423       .  A
C981        C986   1.403       .  A
C982        C983   1.418   1_565  A
C983        C984   1.402   1_545  A
C983        H992   1.078       .  S
C984        C985   1.400       .  A
C984        H993   1.083       .  S
C985        C986   1.399       .  A
C986        H994   1.085       .  S
C995        C996   1.402       .  A
C995       C1000   1.409       .  A
C996        C997   1.400       .  A
C996       H1009   1.079       .  S
C997        C998   1.417       .  A
C997       H1010   1.077       .  S
C998       C1004   1.434       .  A
C998        C999   1.419       .  A
C999       C1001   1.401       .  A
C999       C1000   1.406       .  A
C1000      H1011   1.082       .  S
C1001      C1002   1.392       .  A
C1001      H1012   1.084       .  S
C1002      C1003   1.400       .  A
C1002      H1013   1.084       .  S
C1003      C1004   1.424       .  A
C1003      C1008   1.412   1_565  A
C1004      C1005   1.410       .  A
C1005      C1006   1.394   1_565  A
C1005      H1014   1.077       .  S
C1006      C1007   1.407       .  A
C1006      H1015   1.081       .  S
C1007      C1008   1.405       .  A
C1008      H1016   1.082       .  S
C1017      C1018   1.402       .  A
C1017      C1022   1.400       .  A
C1018      C1019   1.407       .  A
C1018      H1031   1.083       .  S
C1019      C1020   1.418       .  A
C1019      H1032   1.078       .  S
C1020      C1026   1.442       .  A
C1020      C1021   1.425       .  A
C1021      C1023   1.399       .  A
C1021      C1022   1.409       .  A
C1022      H1033   1.085       .  S
C1023      C1024   1.389       .  A
C1023      H1034   1.084       .  S
C1024      C1025   1.399       .  A
C1024      H1035   1.084       .  S
C1025      C1026   1.423       .  A
C1025      C1030   1.407       .  A
C1026      C1027   1.421       .  A
C1027      C1028   1.411       .  A
C1027      H1036   1.078       .  S
C1028      C1029   1.404       .  A
C1028      H1037   1.083       .  S
C1029      C1030   1.402       .  A
C1030      H1038   1.085       .  S
C1039      C1040   1.399   1_545  A
C1039      C1044   1.404       .  A
C1040      C1041   1.397       .  A
C1040      H1053   1.084       .  S
C1041      C1042   1.415   1_565  A
C1041      H1054   1.078       .  S
C1042      C1048   1.431       .  A
C1042      C1043   1.423       .  A
C1043      C1045   1.402       .  A
C1043      C1044   1.411       .  A
C1044      H1055   1.085       .  S
C1045      C1046   1.396       .  A
C1045      H1056   1.084       .  S
C1046      C1047   1.402       .  A
C1046      H1057   1.084       .  S
C1047      C1048   1.421       .  A
C1047      C1052   1.412       .  A
C1048      C1049   1.414       .  A
C1049      C1050   1.398   1_545  A
C1049      H1058   1.078   1_545  S
C1050      C1051   1.399       .  A
C1050      H1059   1.084       .  S
C1051      C1052   1.405   1_565  A
C1052      H1060   1.084       .  S
C1061      C1062   1.400       .  A
C1061      C1066   1.399       .  A
C1062      C1063   1.403       .  A
C1062      H1075   1.083       .  S
C1063      C1064   1.417       .  A
C1063      H1076   1.078       .  S
C1064      C1070   1.435       .  A
C1064      C1065   1.424       .  A
C1065      C1067   1.399       .  A
C1065      C1066   1.405       .  A
C1066      H1077   1.085       .  S
C1067      C1068   1.388       .  A
C1067      H1078   1.084       .  S
C1068      C1069   1.399       .  A
C1068      H1079   1.084       .  S
C1069      C1070   1.423       .  A
C1069      C1074   1.405       .  A
C1070      C1071   1.418       .  A
C1071      C1072   1.404       .  A
C1071      H1080   1.078       .  S
C1072      C1073   1.401       .  A
C1072      H1081   1.083       .  S
C1073      C1074   1.399       .  A
C1074      H1082   1.085       .  S
C1083      C1084   1.399       .  A
C1083      C1088   1.401       .  A
C1084      C1085   1.404       .  A
C1084      H1097   1.083       .  S
C1085      C1086   1.418       .  A
C1085      H1098   1.078       .  S
C1086      C1092   1.437       .  A
C1086      C1087   1.423       .  A
C1087      C1089   1.400       .  A
C1087      C1088   1.408       .  A
C1088      H1099   1.085       .  S
C1089      C1090   1.391       .  A
C1089      H1100   1.084       .  S
C1090      C1091   1.400       .  A
C1090      H1101   1.084       .  S
C1091      C1092   1.423       .  A
C1091      C1096   1.410       .  A
C1092      C1093   1.416       .  A
C1093      C1094   1.403       .  A
C1093      H1102   1.078       .  S
C1094      C1095   1.403       .  A
C1094      H1103   1.083       .  S
C1095      C1096   1.403       .  A
C1096      H1104   1.085       .  S
C1105      C1106   1.398       .  A
C1105      C1110   1.408       .  A
C1106      C1107   1.401       .  A
C1106      H1119   1.081       .  S
C1107      C1108   1.418       .  A
C1107      H1120   1.077       .  S
C1108      C1114   1.435       .  A
C1108      C1109   1.421       .  A
C1109      C1111   1.402       .  A
C1109      C1110   1.409       .  A
C1110      H1121   1.084       .  S
C1111      C1112   1.393       .  A
C1111      H1122   1.084       .  S
C1112      C1113   1.400       .  A
C1112      H1123   1.084       .  S
C1113      C1114   1.424       .  A
C1113      C1118   1.412       .  A
C1114      C1115   1.413       .  A
C1115      C1116   1.396       .  A
C1115      H1124   1.077       .  S
C1116      C1117   1.403       .  A
C1116      H1125   1.082       .  S
C1117      C1118   1.404       .  A
C1118      H1126   1.081       .  S
C1127      C1128   1.402       .  A
C1127      C1132   1.403       .  A
C1128      C1129   1.404       .  A
C1128      H1141   1.083       .  S
C1129      C1130   1.417       .  A
C1129      H1142   1.079       .  S
C1130      C1136   1.435       .  A
C1130      C1131   1.422       .  A
C1131      C1133   1.400       .  A
C1131      C1132   1.406       .  A
C1132      H1143   1.085       .  S
C1133      C1134   1.390       .  A
C1133      H1144   1.084       .  S
C1134      C1135   1.399       .  A
C1134      H1145   1.084       .  S
C1135      C1136   1.423       .  A
C1135      C1140   1.405   1_545  A
C1136      C1137   1.417       .  A
C1137      C1138   1.403   1_545  A
C1137      H1146   1.078       .  S
C1138      C1139   1.399       .  A
C1138      H1147   1.083       .  S
C1139      C1140   1.399       .  A
C1140      H1148   1.085       .  S
C1149      C1150   1.400       .  A
C1149      C1154   1.402       .  A
C1150      C1151   1.400       .  A
C1150      H1163   1.083       .  S
C1151      C1152   1.415       .  A
C1151      H1164   1.078       .  S
C1152      C1158   1.432       .  A
C1152      C1153   1.422       .  A
C1153      C1155   1.400       .  A
C1153      C1154   1.407       .  A
C1154      H1165   1.085       .  S
C1155      C1156   1.391       .  A
C1155      H1166   1.084       .  S
C1156      C1157   1.400       .  A
C1156      H1167   1.084       .  S
C1157      C1158   1.423       .  A
C1157      C1162   1.405       .  A
C1158      C1159   1.417       .  A
C1159      C1160   1.400       .  A
C1159      H1168   1.078       .  S
C1160      C1161   1.398       .  A
C1160      H1169   1.084       .  S
C1161      C1162   1.400       .  A
C1162      H1170   1.085       .  S
C1171      C1172   1.399       .  A
C1171      C1176   1.402       .  A
C1172      C1173   1.395       .  A
C1172      H1185   1.084       .  S
C1173      C1174   1.415       .  A
C1173      H1186   1.077       .  S
C1174      C1180   1.430       .  A
C1174      C1175   1.423       .  A
C1175      C1177   1.401       .  A
C1175      C1176   1.409       .  A
C1176      H1187   1.084       .  S
C1177      C1178   1.393       .  A
C1177      H1188   1.084       .  S
C1178      C1179   1.400       .  A
C1178      H1189   1.084       .  S
C1179      C1180   1.424       .  A
C1179      C1184   1.410       .  A
C1180      C1181   1.414       .  A
C1181      C1182   1.393       .  A
C1181      H1190   1.077       .  S
C1182      C1183   1.398       .  A
C1182      H1191   1.084       .  S
C1183      C1184   1.401       .  A
C1184      H1192   1.085       .  S
C1193      C1194   1.398       .  A
C1193      C1198   1.401       .  A
C1194      C1195   1.399       .  A
C1194      H1207   1.083       .  S
C1195      C1196   1.416       .  A
C1195      H1208   1.077       .  S
C1196      C1202   1.434       .  A
C1196      C1197   1.424       .  A
C1197      C1199   1.400       .  A
C1197      C1198   1.409       .  A
C1198      H1209   1.085       .  S
C1199      C1200   1.391       .  A
C1199      H1210   1.084       .  S
C1200      C1201   1.400       .  A
C1200      H1211   1.084       .  S
C1201      C1202   1.423       .  A
C1201      C1206   1.407       .  A
C1202      C1203   1.417       .  A
C1203      C1204   1.401       .  A
C1203      H1212   1.078       .  S
C1204      C1205   1.400       .  A
C1204      H1213   1.084       .  S
C1205      C1206   1.402       .  A
C1206      H1214   1.085       .  S
C1215      C1216   1.408       .  A
C1215      C1220   1.406       .  A
C1216      C1217   1.398       .  A
C1216      H1229   1.081       .  S
C1217      C1218   1.412       .  A
C1217      H1230   1.077       .  S
C1218      C1224   1.435       .  A
C1218      C1219   1.422       .  A
C1219      C1221   1.400       .  A
C1219      C1220   1.409       .  A
C1220      H1231   1.078       .  S
C1221      C1222   1.390       .  A
C1221      H1232   1.084       .  S
C1222      C1223   1.400       .  A
C1222      H1233   1.084       .  S
C1223      C1224   1.420       .  A
C1223      C1228   1.406       .  A
C1224      C1225   1.416       .  A
C1225      C1226   1.402       .  A
C1225      H1234   1.077       .  S
C1226      C1227   1.405       .  A
C1226      H1235   1.079       .  S
C1227      C1228   1.409       .  A
C1228      H1236   1.083       .  S
C1237      C1238   1.402       .  A
C1237      C1242   1.403   1_565  A
C1238      C1239   1.402       .  A
C1238      H1251   1.084       .  S
C1239      C1240   1.416   1_565  A
C1239      H1252   1.078       .  S
C1240      C1246   1.436       .  A
C1240      C1241   1.423       .  A
C1241      C1243   1.400       .  A
C1241      C1242   1.409       .  A
C1242      H1253   1.085       .  S
C1243      C1244   1.391       .  A
C1243      H1254   1.084       .  S
C1244      C1245   1.400       .  A
C1244      H1255   1.084       .  S
C1245      C1246   1.424       .  A
C1245      C1250   1.409       .  A
C1246      C1247   1.417   1_545  A
C1247      C1248   1.402       .  A
C1247      H1256   1.078       .  S
C1248      C1249   1.401   1_565  A
C1248      H1257   1.084       .  S
C1249      C1250   1.401       .  A
C1250      H1258   1.085       .  S
C1259      C1260   1.397       .  A
C1259      C1264   1.401       .  A
C1260      C1261   1.399       .  A
C1260      H1273   1.084       .  S
C1261      C1262   1.417       .  A
C1261      H1274   1.077       .  S
C1262      C1268   1.434       .  A
C1262      C1263   1.424       .  A
C1263      C1265   1.401       .  A
C1263      C1264   1.410       .  A
C1264      H1275   1.085       .  S
C1265      C1266   1.392       .  A
C1265      H1276   1.084       .  S
C1266      C1267   1.401       .  A
C1266      H1277   1.084       .  S
C1267      C1268   1.422       .  A
C1267      C1272   1.409       .  A
C1268      C1269   1.416       .  A
C1269      C1270   1.399       .  A
C1269      H1278   1.077       .  S
C1270      C1271   1.400       .  A
C1270      H1279   1.083       .  S
C1271      C1272   1.404       .  A
C1272      H1280   1.084       .  S
C1281      C1282   1.399       .  A
C1281      C1286   1.401       .  A
C1282      C1283   1.402       .  A
C1282      H1295   1.083       .  S
C1283      C1284   1.418       .  A
C1283      H1296   1.078       .  S
C1284      C1290   1.435       .  A
C1284      C1285   1.423       .  A
C1285      C1287   1.400       .  A
C1285      C1286   1.407       .  A
C1286      H1297   1.085       .  S
C1287      C1288   1.392       .  A
C1287      H1298   1.084       .  S
C1288      C1289   1.400       .  A
C1288      H1299   1.084       .  S
C1289      C1290   1.423       .  A
C1289      C1294   1.411       .  A
C1290      C1291   1.415       .  A
C1291      C1292   1.401       .  A
C1291      H1300   1.078       .  S
C1292      C1293   1.401       .  A
C1292      H1301   1.083       .  S
C1293      C1294   1.404       .  A
C1294      H1302   1.085       .  S
C1303      C1304   1.400       .  A
C1303      C1308   1.402       .  A
C1304      C1305   1.396       .  A
C1304      H1317   1.084       .  S
C1305      C1306   1.414       .  A
C1305      H1318   1.078       .  S
C1306      C1312   1.432   1_455  A
C1306      C1307   1.424       .  A
C1307      C1309   1.401       .  A
C1307      C1308   1.412       .  A
C1308      H1319   1.084       .  S
C1309      C1310   1.394   1_455  A
C1309      H1320   1.084       .  S
C1310      C1311   1.400       .  A
C1310      H1321   1.084       .  S
C1311      C1312   1.422       .  A
C1311      C1316   1.409       .  A
C1312      C1313   1.416       .  A
C1313      C1314   1.398       .  A
C1313      H1322   1.078       .  S
C1314      C1315   1.398       .  A
C1314      H1323   1.084       .  S
C1315      C1316   1.401       .  A
C1316      H1324   1.084       .  S
C1325      C1326   1.400       .  A
C1325      C1330   1.406       .  A
C1326      C1327   1.403       .  A
C1326      H1339   1.081       .  S
C1327      C1328   1.419       .  A
C1327      H1340   1.077       .  S
C1328      C1334   1.434       .  A
C1328      C1329   1.419       .  A
C1329      C1331   1.400       .  A
C1329      C1330   1.403       .  A
C1330      H1341   1.084       .  S
C1331      C1332   1.390       .  A
C1331      H1342   1.084       .  S
C1332      C1333   1.399       .  A
C1332      H1343   1.084       .  S
C1333      C1334   1.425       .  A
C1333      C1338   1.411       .  A
C1334      C1335   1.410       .  A
C1335      C1336   1.396       .  A
C1335      H1344   1.077       .  S
C1336      C1337   1.408       .  A
C1336      H1345   1.082   1_545  S
C1337      C1338   1.402       .  A
C1338      H1346   1.081       .  S
C1347      C1348   1.400       .  A
C1347      C1352   1.402       .  A
C1348      C1349   1.398   1_455  A
C1348      H1361   1.084       .  S
C1349      C1350   1.415       .  A
C1349      H1362   1.078       .  S
C1350      C1356   1.432       .  A
C1350      C1351   1.421       .  A
C1351      C1353   1.401       .  A
C1351      C1352   1.410   1_655  A
C1352      H1363   1.084       .  S
C1353      C1354   1.394       .  A
C1353      H1364   1.084       .  S
C1354      C1355   1.401       .  A
C1354      H1365   1.084       .  S
C1355      C1356   1.424       .  A
C1355      C1360   1.413       .  A
C1356      C1357   1.413       .  A
C1357      C1358   1.395       .  A
C1357      H1366   1.078       .  S
C1358      C1359   1.402       .  A
C1358      H1367   1.084       .  S
C1359      C1360   1.403       .  A
C1360      H1368   1.084       .  S
C1369      C1370   1.398       .  A
C1369      C1374   1.400       .  A
C1370      C1371   1.401       .  A
C1370      H1383   1.084       .  S
C1371      C1372   1.417       .  A
C1371      H1384   1.078       .  S
C1372      C1378   1.433       .  A
C1372      C1373   1.424       .  A
C1373      C1375   1.400       .  A
C1373      C1374   1.406       .  A
C1374      H1385   1.085       .  S
C1375      C1376   1.391       .  A
C1375      H1386   1.084       .  S
C1376      C1377   1.400       .  A
C1376      H1387   1.084       .  S
C1377      C1378   1.422       .  A
C1377      C1382   1.407       .  A
C1378      C1379   1.416       .  A
C1379      C1380   1.401       .  A
C1379      H1388   1.078       .  S
C1380      C1381   1.400       .  A
C1380      H1389   1.083       .  S
C1381      C1382   1.402       .  A
C1382      H1390   1.085       .  S
C1391      C1392   1.397       .  A
C1391      C1396   1.399       .  A
C1392      C1393   1.402       .  A
C1392      H1405   1.083       .  S
C1393      C1394   1.418       .  A
C1393      H1406   1.078       .  S
C1394      C1400   1.435       .  A
C1394      C1395   1.424       .  A
C1395      C1397   1.400       .  A
C1395      C1396   1.406       .  A
C1396      H1407   1.086   1_455  S
C1397      C1398   1.391       .  A
C1397      H1408   1.084   1_445  S
C1398      C1399   1.401       .  A
C1398      H1409   1.084       .  S
C1399      C1400   1.422       .  A
C1399      C1404   1.407       .  A
C1400      C1401   1.417       .  A
C1401      C1402   1.402       .  A
C1401      H1410   1.078       .  S
C1402      C1403   1.401       .  A
C1402      H1411   1.083       .  S
C1403      C1404   1.405       .  A
C1404      H1412   1.084       .  S
C1413      C1414   1.401       .  A
C1413      C1418   1.400       .  A
C1414      C1415   1.404       .  A
C1414      H1427   1.083       .  S
C1415      C1416   1.418       .  A
C1415      H1428   1.078       .  S
C1416      C1422   1.438       .  A
C1416      C1417   1.423       .  A
C1417      C1419   1.399       .  A
C1417      C1418   1.407       .  A
C1418      H1429   1.085       .  S
C1419      C1420   1.390       .  A
C1419      H1430   1.084       .  S
C1420      C1421   1.399       .  A
C1420      H1431   1.084       .  S
C1421      C1422   1.423       .  A
C1421      C1426   1.409       .  A
C1422      C1423   1.417       .  A
C1423      C1424   1.405       .  A
C1423      H1432   1.078       .  S
C1424      C1425   1.404       .  A
C1424      H1433   1.083       .  S
C1425      C1426   1.403       .  A
C1426      H1434   1.085       .  S
C1435      C1436   1.402       .  A
C1435      C1440   1.408       .  A
C1436      C1437   1.403       .  A
C1436      H1449   1.080       .  S
C1437      C1438   1.418       .  A
C1437      H1450   1.078       .  S
C1438      C1444   1.436       .  A
C1438      C1439   1.420       .  A
C1439      C1441   1.401       .  A
C1439      C1440   1.407       .  A
C1440      H1451   1.084       .  S
C1441      C1442   1.392       .  A
C1441      H1452   1.084       .  S
C1442      C1443   1.399       .  A
C1442      H1453   1.084       .  S
C1443      C1444   1.423       .  A
C1443      C1448   1.411       .  A
C1444      C1445   1.413       .  A
C1445      C1446   1.399       .  A
C1445      H1454   1.078       .  S
C1446      C1447   1.407       .  A
C1446      H1455   1.082       .  S
C1447      C1448   1.404       .  A
C1448      H1456   1.081       .  S
C1457      C1458   1.400       .  A
C1457      C1462   1.401       .  A
C1458      C1459   1.402       .  A
C1458      H1471   1.083       .  S
C1459      C1460   1.416       .  A
C1459      H1472   1.078       .  S
C1460      C1466   1.434       .  A
C1460      C1461   1.422       .  A
C1461      C1463   1.399   1_565  A
C1461      C1462   1.407       .  A
C1462      H1473   1.085   1_565  S
C1463      C1464   1.391       .  A
C1463      H1474   1.084       .  S
C1464      C1465   1.400   1_545  A
C1464      H1475   1.084       .  S
C1465      C1466   1.423       .  A
C1465      C1470   1.408       .  A
C1466      C1467   1.416       .  A
C1467      C1468   1.402       .  A
C1467      H1476   1.078       .  S
C1468      C1469   1.401       .  A
C1468      H1477   1.083       .  S
C1469      C1470   1.401       .  A
C1470      H1478   1.085   1_565  S
C1479      C1480   1.401       .  A
C1479      C1484   1.402       .  A
C1480      C1481   1.400       .  A
C1480      H1493   1.084       .  S
C1481      C1482   1.415       .  A
C1481      H1494   1.078       .  S
C1482      C1488   1.435       .  A
C1482      C1483   1.424       .  A
C1483      C1485   1.400       .  A
C1483      C1484   1.412       .  A
C1484      H1495   1.085       .  S
C1485      C1486   1.393       .  A
C1485      H1496   1.084       .  S
C1486      C1487   1.400       .  A
C1486      H1497   1.084       .  S
C1487      C1488   1.422       .  A
C1487      C1492   1.409       .  A
C1488      C1489   1.417       .  A
C1489      C1490   1.402       .  A
C1489      H1498   1.078       .  S
C1490      C1491   1.401       .  A
C1490      H1499   1.084       .  S
C1491      C1492   1.403       .  A
C1492      H1500   1.085       .  S
C1501      C1502   1.400       .  A
C1501      C1506   1.399   1_565  A
C1502      C1503   1.403   1_565  A
C1502      H1515   1.083       .  S
C1503      C1504   1.417       .  A
C1503      H1516   1.078       .  S
C1504      C1510   1.436       .  A
C1504      C1505   1.423       .  A
C1505      C1507   1.399       .  A
C1505      C1506   1.405       .  A
C1506      H1517   1.085       .  S
C1507      C1508   1.389       .  A
C1507      H1518   1.084       .  S
C1508      C1509   1.399       .  A
C1508      H1519   1.084       .  S
C1509      C1510   1.423       .  A
C1509      C1514   1.406       .  A
C1510      C1511   1.417       .  A
C1511      C1512   1.404       .  A
C1511      H1520   1.078       .  S
C1512      C1513   1.402       .  A
C1512      H1521   1.083       .  S
C1513      C1514   1.401       .  A
C1514      H1522   1.085       .  S
C1523      C1524   1.398       .  A
C1523      C1528   1.400       .  A
C1524      C1525   1.396       .  A
C1524      H1537   1.083       .  S
C1525      C1526   1.416       .  A
C1525      H1538   1.077       .  S
C1526      C1532   1.429   1_556  A
C1526      C1527   1.422       .  A
C1527      C1529   1.400   1_566  A
C1527      C1528   1.406       .  A
C1528      H1539   1.085       .  S
C1529      C1530   1.391       .  A
C1529      H1540   1.084       .  S
C1530      C1531   1.399   1_545  A
C1530      H1541   1.084       .  S
C1531      C1532   1.424       .  A
C1531      C1536   1.408       .  A
C1532      C1533   1.414       .  A
C1533      C1534   1.393       .  A
C1533      H1542   1.078       .  S
C1534      C1535   1.398       .  A
C1534      H1543   1.084       .  S
C1535      C1536   1.398       .  A
C1536      H1544   1.085   1_565  S
C1545      C1546   1.401       .  A
C1545      C1550   1.408       .  A
C1546      C1547   1.403       .  A
C1546      H1559   1.080       .  S
C1547      C1548   1.419       .  A
C1547      H1560   1.077       .  S
C1548      C1554   1.434       .  A
C1548      C1549   1.419       .  A
C1549      C1551   1.401   1_565  A
C1549      C1550   1.404       .  A
C1550      H1561   1.083       .  S
C1551      C1552   1.391       .  A
C1551      H1562   1.084       .  S
C1552      C1553   1.399   1_545  A
C1552      H1563   1.084   1_554  S
C1553      C1554   1.425       .  A
C1553      C1558   1.410   1_554  A
C1554      C1555   1.411       .  A
C1555      C1556   1.396   1_554  A
C1555      H1564   1.077       .  S
C1556      C1557   1.406       .  A
C1556      H1565   1.082       .  S
C1557      C1558   1.402       .  A
C1558      H1566   1.081   1_565  S
C1567      C1568   1.399       .  A
C1567      C1572   1.396       .  A
C1568      C1569   1.402       .  A
C1568      H1581   1.084       .  S
C1569      C1570   1.418       .  A
C1569      H1582   1.078       .  S
C1570      C1576   1.433       .  A
C1570      C1571   1.424       .  A
C1571      C1573   1.398       .  A
C1571      C1572   1.403       .  A
C1572      H1583   1.085       .  S
C1573      C1574   1.387       .  A
C1573      H1584   1.084       .  S
C1574      C1575   1.398       .  A
C1574      H1585   1.084       .  S
C1575      C1576   1.423       .  A
C1575      C1580   1.403       .  A
C1576      C1577   1.417       .  A
C1577      C1578   1.403       .  A
C1577      H1586   1.078       .  S
C1578      C1579   1.401       .  A
C1578      H1587   1.083       .  S
C1579      C1580   1.398       .  A
C1580      H1588   1.085       .  S
C1589      C1590   1.397       .  A
C1589      C1594   1.400       .  A
C1590      C1591   1.391       .  A
C1590      H1603   1.084       .  S
C1591      C1592   1.413       .  A
C1591      H1604   1.077       .  S
C1592      C1598   1.426       .  A
C1592      C1593   1.422       .  A
C1593      C1595   1.400       .  A
C1593      C1594   1.407       .  A
C1594      H1605   1.085       .  S
C1595      C1596   1.393       .  A
C1595      H1606   1.084       .  S
C1596      C1597   1.401       .  A
C1596      H1607   1.084       .  S
C1597      C1598   1.423       .  A
C1597      C1602   1.407       .  A
C1598      C1599   1.414       .  A
C1599      C1600   1.391       .  A
C1599      H1608   1.077       .  S
C1600      C1601   1.396       .  A
C1600      H1609   1.084       .  S
C1601      C1602   1.400       .  A
C1602      H1610   1.085       .  S
C1611      C1612   1.399       .  A
C1611      C1616   1.404       .  A
C1612      C1613   1.397       .  A
C1612      H1625   1.083       .  S
C1613      C1614   1.415       .  A
C1613      H1626   1.078       .  S
C1614      C1620   1.431       .  A
C1614      C1615   1.421       .  A
C1615      C1617   1.401       .  A
C1615      C1616   1.408       .  A
C1616      H1627   1.085       .  S
C1617      C1618   1.393       .  A
C1617      H1628   1.084       .  S
C1618      C1619   1.401       .  A
C1618      H1629   1.084       .  S
C1619      C1620   1.424       .  A
C1619      C1624   1.410       .  A
C1620      C1621   1.415       .  A
C1621      C1622   1.397       .  A
C1621      H1630   1.078       .  S
C1622      C1623   1.399       .  A
C1622      H1631   1.084       .  S
C1623      C1624   1.401       .  A
C1624      H1632   1.085       .  S
C1633      C1634   1.399       .  A
C1633      C1638   1.401       .  A
C1634      C1635   1.398       .  A
C1634      H1647   1.084       .  S
C1635      C1636   1.415       .  A
C1635      H1648   1.077       .  S
C1636      C1642   1.434       .  A
C1636      C1637   1.423       .  A
C1637      C1639   1.400       .  A
C1637      C1638   1.410       .  A
C1638      H1649   1.085       .  S
C1639      C1640   1.392       .  A
C1639      H1650   1.084       .  S
C1640      C1641   1.400       .  A
C1640      H1651   1.084       .  S
C1641      C1642   1.424       .  A
C1641      C1646   1.409       .  A
C1642      C1643   1.416       .  A
C1643      C1644   1.399       .  A
C1643      H1652   1.077       .  S
C1644      C1645   1.399       .  A
C1644      H1653   1.084       .  S
C1645      C1646   1.400       .  A
C1646      H1654   1.085       .  S
C1655      C1656   1.403       .  A
C1655      C1660   1.406       .  A
C1656      C1657   1.402       .  A
C1656      H1669   1.076       .  S
C1657      C1658   1.416       .  A
C1657      H1670   1.078       .  S
C1658      C1664   1.435       .  A
C1658      C1659   1.421       .  A
C1659      C1661   1.400       .  A
C1659      C1660   1.406       .  A
C1660      H1671   1.084       .  S
C1661      C1662   1.389       .  A
C1661      H1672   1.084       .  S
C1662      C1663   1.399       .  A
C1662      H1673   1.084       .  S
C1663      C1664   1.422       .  A
C1663      C1668   1.406       .  A
C1664      C1665   1.414       .  A
C1665      C1666   1.399       .  A
C1665      H1674   1.078       .  S
C1666      C1667   1.404       .  A
C1666      H1675   1.083       .  S
C1667      C1668   1.402       .  A
C1668      H1676   1.077       .  S
C1677      C1678   1.400       .  A
C1677      C1682   1.406       .  A
C1678      C1679   1.398       .  A
C1678      H1691   1.084       .  S
C1679      C1680   1.415       .  A
C1679      H1692   1.078       .  S
C1680      C1686   1.433       .  A
C1680      C1681   1.423       .  A
C1681      C1683   1.402       .  A
C1681      C1682   1.413       .  A
C1682      H1693   1.085       .  S
C1683      C1684   1.395       .  A
C1683      H1694   1.084       .  S
C1684      C1685   1.402       .  A
C1684      H1695   1.084       .  S
C1685      C1686   1.422       .  A
C1685      C1690   1.412       .  A
C1686      C1687   1.415       .  A
C1687      C1688   1.397       .  A
C1687      H1696   1.078       .  S
C1688      C1689   1.398       .  A
C1688      H1697   1.084       .  S
C1689      C1690   1.404       .  A
C1690      H1698   1.084       .  S
C1699      C1700   1.398       .  A
C1699      C1704   1.403       .  A
C1700      C1701   1.398   1_655  A
C1700      H1713   1.083       .  S
C1701      C1702   1.416       .  A
C1701      H1714   1.077       .  S
C1702      C1708   1.432       .  A
C1702      C1703   1.423   1_455  A
C1703      C1705   1.401       .  A
C1703      C1704   1.409       .  A
C1704      H1715   1.085       .  S
C1705      C1706   1.393   1_655  A
C1705      H1716   1.084       .  S
C1706      C1707   1.400       .  A
C1706      H1717   1.084       .  S
C1707      C1708   1.423       .  A
C1707      C1712   1.409       .  A
C1708      C1709   1.414       .  A
C1709      C1710   1.396       .  A
C1709      H1718   1.077       .  S
C1710      C1711   1.401       .  A
C1710      H1719   1.084       .  S
C1711      C1712   1.402       .  A
C1712      H1720   1.085       .  S
C1721      C1722   1.398       .  A
C1721      C1726   1.400       .  A
C1722      C1723   1.403       .  A
C1722      H1735   1.083       .  S
C1723      C1724   1.418       .  A
C1723      H1736   1.078       .  S
C1724      C1730   1.435       .  A
C1724      C1725   1.424       .  A
C1725      C1727   1.399       .  A
C1725      C1726   1.405       .  A
C1726      H1737   1.085       .  S
C1727      C1728   1.388       .  A
C1727      H1738   1.084       .  S
C1728      C1729   1.399       .  A
C1728      H1739   1.084       .  S
C1729      C1730   1.422       .  A
C1729      C1734   1.404       .  A
C1730      C1731   1.417       .  A
C1731      C1732   1.403       .  A
C1731      H1740   1.078       .  S
C1732      C1733   1.402       .  A
C1732      H1741   1.083       .  S
C1733      C1734   1.403       .  A
C1734      H1742   1.085       .  S
C1743      C1744   1.398       .  A
C1743      C1748   1.403       .  A
C1744      C1745   1.398       .  A
C1744      H1757   1.084       .  S
C1745      C1746   1.415       .  A
C1745      H1758   1.078       .  S
C1746      C1752   1.431       .  A
C1746      C1747   1.423       .  A
C1747      C1749   1.401       .  A
C1747      C1748   1.411       .  A
C1748      H1759   1.085       .  S
C1749      C1750   1.394       .  A
C1749      H1760   1.084       .  S
C1750      C1751   1.401       .  A
C1750      H1761   1.084       .  S
C1751      C1752   1.421       .  A
C1751      C1756   1.409       .  A
C1752      C1753   1.415       .  A
C1753      C1754   1.399       .  A
C1753      H1762   1.078       .  S
C1754      C1755   1.400       .  A
C1754      H1763   1.083       .  S
C1755      C1756   1.404       .  A
C1756      H1764   1.085       .  S
C1765      C1766   1.400       .  A
C1765      C1770   1.409       .  A
C1766      C1767   1.399       .  A
C1766      H1779   1.081       .  S
C1767      C1768   1.416       .  A
C1767      H1780   1.078       .  S
C1768      C1774   1.432       .  A
C1768      C1769   1.419       .  A
C1769      C1771   1.403       .  A
C1769      C1770   1.411       .  A
C1770      H1781   1.084       .  S
C1771      C1772   1.396       .  A
C1771      H1782   1.084       .  S
C1772      C1773   1.402       .  A
C1772      H1783   1.084       .  S
C1773      C1774   1.423       .  A
C1773      C1778   1.416       .  A
C1774      C1775   1.410       .  A
C1775      C1776   1.394       .  A
C1775      H1784   1.078       .  S
C1776      C1777   1.407       .  A
C1776      H1785   1.082       .  S
C1777      C1778   1.408       .  A
C1778      H1786   1.082       .  S
C1787      C1788   1.401       .  A
C1787      C1792   1.401       .  A
C1788      C1789   1.401       .  A
C1788      H1801   1.083       .  S
C1789      C1790   1.417       .  A
C1789      H1802   1.078       .  S
C1790      C1796   1.432       .  A
C1790      C1791   1.423       .  A
C1791      C1793   1.399       .  A
C1791      C1792   1.402       .  A
C1792      H1803   1.085       .  S
C1793      C1794   1.388       .  A
C1793      H1804   1.084       .  S
C1794      C1795   1.399       .  A
C1794      H1805   1.084       .  S
C1795      C1796   1.423       .  A
C1795      C1800   1.402   1_545  A
C1796      C1797   1.418       .  A
C1797      C1798   1.401   1_545  A
C1797      H1806   1.078       .  S
C1798      C1799   1.397       .  A
C1798      H1807   1.083       .  S
C1799      C1800   1.398       .  A
C1800      H1808   1.085       .  S
C1809      C1810   1.397       .  A
C1809      C1814   1.402       .  A
C1810      C1811   1.399       .  A
C1810      H1823   1.083       .  S
C1811      C1812   1.417       .  A
C1811      H1824   1.077       .  S
C1812      C1818   1.434       .  A
C1812      C1813   1.423       .  A
C1813      C1815   1.401       .  A
C1813      C1814   1.409       .  A
C1814      H1825   1.085       .  S
C1815      C1816   1.393       .  A
C1815      H1826   1.084       .  S
C1816      C1817   1.401       .  A
C1816      H1827   1.084       .  S
C1817      C1818   1.424       .  A
C1817      C1822   1.410       .  A
C1818      C1819   1.416       .  A
C1819      C1820   1.398       .  A
C1819      H1828   1.077       .  S
C1820      C1821   1.399       .  A
C1820      H1829   1.084   1_455  S
C1821      C1822   1.402       .  A
C1822      H1830   1.085       .  S
C1831      C1832   1.398       .  A
C1831      C1836   1.401       .  A
C1832      C1833   1.395   1_455  A
C1832      H1845   1.084       .  S
C1833      C1834   1.415       .  A
C1833      H1846   1.077       .  S
C1834      C1840   1.432       .  A
C1834      C1835   1.423       .  A
C1835      C1837   1.401       .  A
C1835      C1836   1.410   1_655  A
C1836      H1847   1.084       .  S
C1837      C1838   1.395       .  A
C1837      H1848   1.084       .  S
C1838      C1839   1.402       .  A
C1838      H1849   1.084       .  S
C1839      C1840   1.424       .  A
C1839      C1844   1.414       .  A
C1840      C1841   1.414       .  A
C1841      C1842   1.395       .  A
C1841      H1850   1.077       .  S
C1842      C1843   1.400       .  A
C1842      H1851   1.084       .  S
C1843      C1844   1.405       .  A
C1844      H1852   1.084       .  S
C1853      C1854   1.398       .  A
C1853      C1858   1.398       .  A
C1854      C1855   1.398       .  A
C1854      H1867   1.083       .  S
C1855      C1856   1.416       .  A
C1855      H1868   1.078       .  S
C1856      C1862   1.427       .  A
C1856      C1857   1.422       .  A
C1857      C1859   1.400       .  A
C1857      C1858   1.402       .  A
C1858      H1869   1.085       .  S
C1859      C1860   1.390       .  A
C1859      H1870   1.084       .  S
C1860      C1861   1.398       .  A
C1860      H1871   1.084       .  S
C1861      C1862   1.423       .  A
C1861      C1866   1.404       .  A
C1862      C1863   1.413       .  A
C1863      C1864   1.396       .  A
C1863      H1872   1.079       .  S
C1864      C1865   1.400       .  A
C1864      H1873   1.084       .  S
C1865      C1866   1.397       .  A
C1866      H1874   1.085       .  S
C1875      C1876   1.405       .  A
C1875      C1880   1.402       .  A
C1876      C1877   1.393       .  A
C1876      H1889   1.082       .  S
C1877      C1878   1.411       .  A
C1877      H1890   1.077       .  S
C1878      C1884   1.430       .  A
C1878      C1879   1.423       .  A
C1879      C1881   1.399       .  A
C1879      C1880   1.408       .  A
C1880      H1891   1.079       .  S
C1881      C1882   1.391       .  A
C1881      H1892   1.084       .  S
C1882      C1883   1.401       .  A
C1882      H1893   1.084       .  S
C1883      C1884   1.420       .  A
C1883      C1888   1.406       .  A
C1884      C1885   1.416       .  A
C1885      C1886   1.397       .  A
C1885      H1894   1.077       .  S
C1886      C1887   1.400       .  A
C1886      H1895   1.081       .  S
C1887      C1888   1.406       .  A
C1888      H1896   1.084       .  S
C1897      C1898   1.399       .  A
C1897      C1902   1.398       .  A
C1898      C1899   1.400       .  A
C1898      H1911   1.083       .  S
C1899      C1900   1.417       .  A
C1899      H1912   1.078       .  S
C1900      C1906   1.431       .  A
C1900      C1901   1.423       .  A
C1901      C1903   1.399       .  A
C1901      C1902   1.404       .  A
C1902      H1913   1.085       .  S
C1903      C1904   1.390       .  A
C1903      H1914   1.084       .  S
C1904      C1905   1.399       .  A
C1904      H1915   1.084       .  S
C1905      C1906   1.422       .  A
C1905      C1910   1.405       .  A
C1906      C1907   1.415       .  A
C1907      C1908   1.399       .  A
C1907      H1916   1.078       .  S
C1908      C1909   1.399       .  A
C1908      H1917   1.084       .  S
C1909      C1910   1.400       .  A
C1910      H1918   1.085       .  S
C1919      C1920   1.401       .  A
C1919      C1924   1.399       .  A
C1920      C1921   1.403       .  A
C1920      H1933   1.084       .  S
C1921      C1922   1.418       .  A
C1921      H1934   1.078       .  S
C1922      C1928   1.434       .  A
C1922      C1923   1.423       .  A
C1923      C1925   1.399       .  A
C1923      C1924   1.403       .  A
C1924      H1935   1.085       .  S
C1925      C1926   1.388       .  A
C1925      H1936   1.084       .  S
C1926      C1927   1.399       .  A
C1926      H1937   1.084       .  S
C1927      C1928   1.424       .  A
C1927      C1932   1.404       .  A
C1928      C1929   1.417       .  A
C1929      C1930   1.401   1_565  A
C1929      H1938   1.078       .  S
C1930      C1931   1.398       .  A
C1930      H1939   1.083       .  S
C1931      C1932   1.399   1_545  A
C1932      H1940   1.085       .  S
C1941      C1942   1.402   1_545  A
C1941      C1946   1.402       .  A
C1942      C1943   1.402   1_565  A
C1942      H1955   1.084       .  S
C1943      C1944   1.416       .  A
C1943      H1956   1.078   1_545  S
C1944      C1950   1.435       .  A
C1944      C1945   1.423       .  A
C1945      C1947   1.399       .  A
C1945      C1946   1.408       .  A
C1946      H1957   1.085       .  S
C1947      C1948   1.390       .  A
C1947      H1958   1.084       .  S
C1948      C1949   1.399       .  A
C1948      H1959   1.084       .  S
C1949      C1950   1.423       .  A
C1949      C1954   1.406       .  A
C1950      C1951   1.418       .  A
C1951      C1952   1.403       .  A
C1951      H1960   1.078       .  S
C1952      C1953   1.400       .  A
C1952      H1961   1.083       .  S
C1953      C1954   1.399       .  A
C1954      H1962   1.085       .  S
C1963      C1964   1.402       .  A
C1963      C1968   1.399       .  A
C1964      C1965   1.402       .  A
C1964      H1977   1.083       .  S
C1965      C1966   1.416       .  A
C1965      H1978   1.078       .  S
C1966      C1972   1.433       .  A
C1966      C1967   1.423       .  A
C1967      C1969   1.398       .  A
C1967      C1968   1.404       .  A
C1968      H1979   1.085       .  S
C1969      C1970   1.388       .  A
C1969      H1980   1.084       .  S
C1970      C1971   1.399       .  A
C1970      H1981   1.084       .  S
C1971      C1972   1.423       .  A
C1971      C1976   1.403       .  A
C1972      C1973   1.418       .  A
C1973      C1974   1.402       .  A
C1973      H1982   1.078       .  S
C1974      C1975   1.398       .  A
C1974      H1983   1.083       .  S
C1975      C1976   1.399       .  A
C1976      H1984   1.085       .  S
C1985      C1986   1.407       .  A
C1985      C1990   1.405       .  A
C1986      C1987   1.398       .  A
C1986      H1999   1.082       .  S
C1987      C1988   1.413       .  A
C1987      H2000   1.078       .  S
C1988      C1994   1.433       .  A
C1988      C1989   1.422       .  A
C1989      C1991   1.400       .  A
C1989      C1990   1.408       .  A
C1990      H2001   1.079       .  S
C1991      C1992   1.390       .  A
C1991      H2002   1.084       .  S
C1992      C1993   1.400       .  A
C1992      H2003   1.084       .  S
C1993      C1994   1.420       .  A
C1993      C1998   1.405       .  A
C1994      C1995   1.416       .  A
C1995      C1996   1.401       .  A
C1995      H2004   1.078       .  S
C1996      C1997   1.402       .  A
C1996      H2005   1.080       .  S
C1997      C1998   1.407       .  A
C1998      H2006   1.083       .  S
C2007      C2008   1.399       .  A
C2007      C2012   1.400       .  A
C2008      C2009   1.396       .  A
C2008      H2021   1.084       .  S
C2009      C2010   1.415       .  A
C2009      H2022   1.078       .  S
C2010      C2016   1.429   1_565  A
C2010      C2011   1.422       .  A
C2011      C2013   1.400       .  A
C2011      C2012   1.407       .  A
C2012      H2023   1.084       .  S
C2013      C2014   1.392   1_565  A
C2013      H2024   1.084       .  S
C2014      C2015   1.400       .  A
C2014      H2025   1.084       .  S
C2015      C2016   1.424       .  A
C2015      C2020   1.408       .  A
C2016      C2017   1.414       .  A
C2017      C2018   1.394       .  A
C2017      H2026   1.077       .  S
C2018      C2019   1.399       .  A
C2018      H2027   1.083       .  S
C2019      C2020   1.400       .  A
C2020      H2028   1.085       .  S
C2029      C2030   1.398       .  A
C2029      C2034   1.401       .  A
C2030      C2031   1.399       .  A
C2030      H2043   1.084       .  S
C2031      C2032   1.416       .  A
C2031      H2044   1.078       .  S
C2032      C2038   1.432       .  A
C2032      C2033   1.424       .  A
C2033      C2035   1.400       .  A
C2033      C2034   1.408       .  A
C2034      H2045   1.085       .  S
C2035      C2036   1.392       .  A
C2035      H2046   1.084       .  S
C2036      C2037   1.400       .  A
C2036      H2047   1.084       .  S
C2037      C2038   1.422       .  A
C2037      C2042   1.407       .  A
C2038      C2039   1.416       .  A
C2039      C2040   1.399       .  A
C2039      H2048   1.078       .  S
C2040      C2041   1.399       .  A
C2040      H2049   1.084       .  S
C2041      C2042   1.402       .  A
C2042      H2050   1.085       .  S
C2051      C2052   1.399       .  A
C2051      C2056   1.403       .  A
C2052      C2053   1.399       .  A
C2052      H2065   1.083       .  S
C2053      C2054   1.416       .  A
C2053      H2066   1.077       .  S
C2054      C2060   1.435       .  A
C2054      C2055   1.424       .  A
C2055      C2057   1.401       .  A
C2055      C2056   1.412       .  A
C2056      H2067   1.085       .  S
C2057      C2058   1.393       .  A
C2057      H2068   1.084       .  S
C2058      C2059   1.400       .  A
C2058      H2069   1.084       .  S
C2059      C2060   1.424       .  A
C2059      C2064   1.410       .  A
C2060      C2061   1.417       .  A
C2061      C2062   1.400       .  A
C2061      H2070   1.077       .  S
C2062      C2063   1.399       .  A
C2062      H2071   1.084       .  S
C2063      C2064   1.402       .  A
C2064      H2072   1.085       .  S
C2073      C2074   1.399       .  A
C2073      C2078   1.404       .  A
C2074      C2075   1.396       .  A
C2074      H2087   1.084       .  S
C2075      C2076   1.415       .  A
C2075      H2088   1.077       .  S
C2076      C2082   1.432       .  A
C2076      C2077   1.421       .  A
C2077      C2079   1.402       .  A
C2077      C2078   1.412       .  A
C2078      H2089   1.084       .  S
C2079      C2080   1.396       .  A
C2079      H2090   1.084       .  S
C2080      C2081   1.402       .  A
C2080      H2091   1.084       .  S
C2081      C2082   1.424       .  A
C2081      C2086   1.414       .  A
C2082      C2083   1.413       .  A
C2083      C2084   1.394       .  A
C2083      H2092   1.077       .  S
C2084      C2085   1.400       .  A
C2084      H2093   1.084       .  S
C2085      C2086   1.405       .  A
C2086      H2094   1.084       .  S
C2095      C2096   1.399       .  A
C2095      C2100   1.407       .  A
C2096      C2097   1.400       .  A
C2096      H2109   1.080       .  S
C2097      C2098   1.417       .  A
C2097      H2110   1.077       .  S
C2098      C2104   1.433       .  A
C2098      C2099   1.420       .  A
C2099      C2101   1.401       .  A
C2099      C2100   1.408       .  A
C2100      H2111   1.084       .  S
C2101      C2102   1.393       .  A
C2101      H2112   1.084       .  S
C2102      C2103   1.400       .  A
C2102      H2113   1.084       .  S
C2103      C2104   1.424       .  A
C2103      C2108   1.411       .  A
C2104      C2105   1.412       .  A
C2105      C2106   1.395       .  A
C2105      H2114   1.077       .  S
C2106      C2107   1.403       .  A
C2106      H2115   1.083       .  S
C2107      C2108   1.404       .  A
C2108      H2116   1.081       .  S
C2117      C2118   1.398       .  A
C2117      C2122   1.399       .  A
C2118      C2119   1.402       .  A
C2118      H2131   1.083       .  S
C2119      C2120   1.418       .  A
C2119      H2132   1.078       .  S
C2120      C2126   1.436       .  A
C2120      C2121   1.424       .  A
C2121      C2123   1.399       .  A
C2121      C2122   1.407       .  A
C2122      H2133   1.085       .  S
C2123      C2124   1.390       .  A
C2123      H2134   1.084   1_554  S
C2124      C2125   1.399       .  A
C2124      H2135   1.084   1_554  S
C2125      C2126   1.422       .  A
C2125      C2130   1.406       .  A
C2126      C2127   1.417       .  A
C2127      C2128   1.403       .  A
C2127      H2136   1.078       .  S
C2128      C2129   1.402       .  A
C2128      H2137   1.083       .  S
C2129      C2130   1.402       .  A
C2130      H2138   1.084       .  S
C2139      C2140   1.401       .  A
C2139      C2144   1.400       .  A
C2140      C2141   1.405       .  A
C2140      H2153   1.083       .  S
C2141      C2142   1.418       .  A
C2141      H2154   1.078       .  S
C2142      C2148   1.436       .  A
C2142      C2143   1.423       .  A
C2143      C2145   1.400       .  A
C2143      C2144   1.406       .  A
C2144      H2155   1.085       .  S
C2145      C2146   1.390       .  A
C2145      H2156   1.084       .  S
C2146      C2147   1.399       .  A
C2146      H2157   1.084       .  S
C2147      C2148   1.423       .  A
C2147      C2152   1.409       .  A
C2148      C2149   1.416       .  A
C2149      C2150   1.403       .  A
C2149      H2158   1.078       .  S
C2150      C2151   1.404       .  A
C2150      H2159   1.083       .  S
C2151      C2152   1.403       .  A
C2152      H2160   1.085       .  S
C2161      C2162   1.402       .  A
C2161      C2166   1.399       .  A
C2162      C2163   1.404       .  A
C2162      H2175   1.083       .  S
C2163      C2164   1.417       .  A
C2163      H2176   1.078       .  S
C2164      C2170   1.437       .  A
C2164      C2165   1.423       .  A
C2165      C2167   1.399       .  A
C2165      C2166   1.406       .  A
C2166      H2177   1.085       .  S
C2167      C2168   1.389       .  A
C2167      H2178   1.084       .  S
C2168      C2169   1.399       .  A
C2168      H2179   1.084       .  S
C2169      C2170   1.424       .  A
C2169      C2174   1.408       .  A
C2170      C2171   1.417       .  A
C2171      C2172   1.403       .  A
C2171      H2180   1.078       .  S
C2172      C2173   1.403       .  A
C2172      H2181   1.084       .  S
C2173      C2174   1.400       .  A
C2174      H2182   1.085       .  S
C2183      C2184   1.401       .  A
C2183      C2188   1.398       .  A
C2184      C2185   1.402       .  A
C2184      H2197   1.084   1_554  S
C2185      C2186   1.416       .  A
C2185      H2198   1.078   1_554  S
C2186      C2192   1.436       .  A
C2186      C2187   1.425       .  A
C2187      C2189   1.399       .  A
C2187      C2188   1.408       .  A
C2188      H2199   1.085       .  S
C2189      C2190   1.389       .  A
C2189      H2200   1.084       .  S
C2190      C2191   1.399       .  A
C2190      H2201   1.084       .  S
C2191      C2192   1.421       .  A
C2191      C2196   1.405       .  A
C2192      C2193   1.418       .  A
C2193      C2194   1.405       .  A
C2193      H2202   1.078   1_554  S
C2194      C2195   1.402       .  A
C2194      H2203   1.083   1_554  S
C2195      C2196   1.402       .  A
C2196      H2204   1.084       .  S
C2205      C2206   1.398   1_554  A
C2205      C2210   1.403       .  A
C2206      C2207   1.406       .  A
C2206      H2219   1.083       .  S
C2207      C2208   1.421   1_556  A
C2207      H2220   1.078       .  S
C2208      C2214   1.436       .  A
C2208      C2209   1.420       .  A
C2209      C2211   1.400       .  A
C2209      C2210   1.403       .  A
C2210      H2221   1.084       .  S
C2211      C2212   1.390       .  A
C2211      H2222   1.084       .  S
C2212      C2213   1.398       .  A
C2212      H2223   1.084       .  S
C2213      C2214   1.427       .  A
C2213      C2218   1.411       .  A
C2214      C2215   1.412       .  A
C2215      C2216   1.398       .  A
C2215      H2224   1.078   1_554  S
C2216      C2217   1.404       .  A
C2216      H2225   1.083       .  S
C2217      C2218   1.398       .  A
C2218      H2226   1.084       .  S
C2227      C2228   1.399       .  A
C2227      C2232   1.398       .  A
C2228      C2229   1.405       .  A
C2228      H2241   1.083   1_455  S
C2229      C2230   1.419       .  A
C2229      H2242   1.078       .  S
C2230      C2236   1.436       .  A
C2230      C2231   1.424       .  A
C2231      C2233   1.398       .  A
C2231      C2232   1.403       .  A
C2232      H2243   1.085       .  S
C2233      C2234   1.387       .  A
C2233      H2244   1.084       .  S
C2234      C2235   1.398       .  A
C2234      H2245   1.084       .  S
C2235      C2236   1.422       .  A
C2235      C2240   1.402       .  A
C2236      C2237   1.418       .  A
C2237      C2238   1.406       .  A
C2237      H2246   1.078       .  S
C2238      C2239   1.402       .  A
C2238      H2247   1.083       .  S
C2239      C2240   1.402       .  A
C2240      H2248   1.085       .  S
C2249      C2250   1.398   1_655  A
C2249      C2254   1.399       .  A
C2250      C2251   1.403   1_455  A
C2250      H2263   1.083       .  S
C2251      C2252   1.418       .  A
C2251      H2264   1.078   1_655  S
C2252      C2258   1.434       .  A
C2252      C2253   1.423       .  A
C2253      C2255   1.400       .  A
C2253      C2254   1.405       .  A
C2254      H2265   1.085       .  S
C2255      C2256   1.390       .  A
C2255      H2266   1.084       .  S
C2256      C2257   1.399       .  A
C2256      H2267   1.084       .  S
C2257      C2258   1.423       .  A
C2257      C2262   1.406       .  A
C2258      C2259   1.416       .  A
C2259      C2260   1.401       .  A
C2259      H2268   1.078   1_655  S
C2260      C2261   1.401       .  A
C2260      H2269   1.083   1_655  S
C2261      C2262   1.401       .  A
C2262      H2270   1.085       .  S
C2271      C2272   1.399       .  A
C2271      C2276   1.399       .  A
C2272      C2273   1.405       .  A
C2272      H2285   1.083   1_655  S
C2273      C2274   1.419       .  A
C2273      H2286   1.078   1_655  S
C2274      C2280   1.437       .  A
C2274      C2275   1.423       .  A
C2275      C2277   1.399       .  A
C2275      C2276   1.404       .  A
C2276      H2287   1.085       .  S
C2277      C2278   1.388       .  A
C2277      H2288   1.084       .  S
C2278      C2279   1.398       .  A
C2278      H2289   1.084       .  S
C2279      C2280   1.423       .  A
C2279      C2284   1.405       .  A
C2280      C2281   1.417       .  A
C2281      C2282   1.404       .  A
C2281      H2290   1.078   1_655  S
C2282      C2283   1.403       .  A
C2282      H2291   1.083   1_655  S
C2283      C2284   1.402       .  A
C2284      H2292   1.085       .  S
C2293      C2294   1.400       .  A
C2293      C2298   1.401       .  A
C2294      C2295   1.402       .  A
C2294      H2307   1.083       .  S
C2295      C2296   1.418       .  A
C2295      H2308   1.078       .  S
C2296      C2302   1.436       .  A
C2296      C2297   1.423       .  A
C2297      C2299   1.400       .  A
C2297      C2298   1.407       .  A
C2298      H2309   1.085       .  S
C2299      C2300   1.391       .  A
C2299      H2310   1.084       .  S
C2300      C2301   1.400       .  A
C2300      H2311   1.084       .  S
C2301      C2302   1.424       .  A
C2301      C2306   1.410       .  A
C2302      C2303   1.415       .  A
C2303      C2304   1.401       .  A
C2303      H2312   1.078       .  S
C2304      C2305   1.402       .  A
C2304      H2313   1.083       .  S
C2305      C2306   1.403       .  A
C2306      H2314   1.085       .  S
C2315      C2316   1.400   1_655  A
C2315      C2320   1.404       .  A
C2316      C2317   1.405       .  A
C2316      H2329   1.082       .  S
C2317      C2318   1.420   1_455  A
C2317      H2330   1.078       .  S
C2318      C2324   1.436       .  A
C2318      C2319   1.421       .  A
C2319      C2321   1.400       .  A
C2319      C2320   1.404       .  A
C2320      H2331   1.084       .  S
C2321      C2322   1.390       .  A
C2321      H2332   1.084       .  S
C2322      C2323   1.398       .  A
C2322      H2333   1.084       .  S
C2323      C2324   1.426       .  A
C2323      C2328   1.410       .  A
C2324      C2325   1.413       .  A
C2325      C2326   1.399       .  A
C2325      H2334   1.078   1_655  S
C2326      C2327   1.405       .  A
C2326      H2335   1.083   1_655  S
C2327      C2328   1.399       .  A
C2328      H2336   1.083       .  S
C2337      C2338   1.401       .  A
C2337      C2342   1.401       .  A
C2338      C2339   1.399       .  A
C2338      H2351   1.084       .  S
C2339      C2340   1.416       .  A
C2339      H2352   1.077       .  S
C2340      C2346   1.434       .  A
C2340      C2341   1.424       .  A
C2341      C2343   1.400       .  A
C2341      C2342   1.409       .  A
C2342      H2353   1.085       .  S
C2343      C2344   1.391       .  A
C2343      H2354   1.084       .  S
C2344      C2345   1.399       .  A
C2344      H2355   1.084       .  S
C2345      C2346   1.423       .  A
C2345      C2350   1.408       .  A
C2346      C2347   1.416       .  A
C2347      C2348   1.399       .  A
C2347      H2356   1.078       .  S
C2348      C2349   1.400       .  A
C2348      H2357   1.084       .  S
C2349      C2350   1.399       .  A
C2350      H2358   1.084       .  S
C2359      C2360   1.399       .  A
C2359      C2364   1.399       .  A
C2360      C2361   1.397       .  A
C2360      H2373   1.084       .  S
C2361      C2362   1.414       .  A
C2361      H2374   1.078       .  S
C2362      C2368   1.429       .  A
C2362      C2363   1.423       .  A
C2363      C2365   1.399       .  A
C2363      C2364   1.404       .  A
C2364      H2375   1.085       .  S
C2365      C2366   1.390       .  A
C2365      H2376   1.084       .  S
C2366      C2367   1.400       .  A
C2366      H2377   1.084       .  S
C2367      C2368   1.422       .  A
C2367      C2372   1.403       .  A
C2368      C2369   1.416       .  A
C2369      C2370   1.399       .  A
C2369      H2378   1.078       .  S
C2370      C2371   1.398       .  A
C2370      H2379   1.083       .  S
C2371      C2372   1.398       .  A
C2372      H2380   1.085       .  S
C2381      C2382   1.399       .  A
C2381      C2386   1.402       .  A
C2382      C2383   1.400       .  A
C2382      H2395   1.084       .  S
C2383      C2384   1.417       .  A
C2383      H2396   1.078       .  S
C2384      C2390   1.434       .  A
C2384      C2385   1.422       .  A
C2385      C2387   1.401       .  A
C2385      C2386   1.408       .  A
C2386      H2397   1.085       .  S
C2387      C2388   1.393       .  A
C2387      H2398   1.084       .  S
C2388      C2389   1.401       .  A
C2388      H2399   1.084       .  S
C2389      C2390   1.424       .  A
C2389      C2394   1.411       .  A
C2390      C2391   1.415       .  A
C2391      C2392   1.398       .  A
C2391      H2400   1.077       .  S
C2392      C2393   1.398       .  A
C2392      H2401   1.084       .  S
C2393      C2394   1.403       .  A
C2394      H2402   1.085       .  S
C2403      C2404   1.399       .  A
C2403      C2408   1.400       .  A
C2404      C2405   1.396       .  A
C2404      H2417   1.084       .  S
C2405      C2406   1.415       .  A
C2405      H2418   1.077       .  S
C2406      C2412   1.430   1_565  A
C2406      C2407   1.422       .  A
C2407      C2409   1.400       .  A
C2407      C2408   1.406       .  A
C2408      H2419   1.085       .  S
C2409      C2410   1.391   1_565  A
C2409      H2420   1.084       .  S
C2410      C2411   1.400       .  A
C2410      H2421   1.084       .  S
C2411      C2412   1.424       .  A
C2411      C2416   1.407       .  A
C2412      C2413   1.415       .  A
C2413      C2414   1.395       .  A
C2413      H2422   1.077       .  S
C2414      C2415   1.397       .  A
C2414      H2423   1.084       .  S
C2415      C2416   1.400       .  A
C2416      H2424   1.085       .  S
C2425      C2426   1.405       .  A
C2425      C2430   1.408       .  A
C2426      C2427   1.402       .  A
C2426      H2439   1.077       .  S
C2427      C2428   1.415       .  A
C2427      H2440   1.078       .  S
C2428      C2434   1.434       .  A
C2428      C2429   1.420       .  A
C2429      C2431   1.400       .  A
C2429      C2430   1.407       .  A
C2430      H2441   1.083       .  S
C2431      C2432   1.391       .  A
C2431      H2442   1.084       .  S
C2432      C2433   1.399       .  A
C2432      H2443   1.084       .  S
C2433      C2434   1.422       .  A
C2433      C2438   1.409       .  A
C2434      C2435   1.412       .  A
C2435      C2436   1.398       .  A
C2435      H2444   1.078       .  S
C2436      C2437   1.409       .  A
C2436      H2445   1.081       .  S
C2437      C2438   1.405       .  A
C2438      H2446   1.079       .  S
C2447      C2448   1.400       .  A
C2447      C2452   1.397       .  A
C2448      C2449   1.404       .  A
C2448      H2461   1.083       .  S
C2449      C2450   1.418       .  A
C2449      H2462   1.078       .  S
C2450      C2456   1.436       .  A
C2450      C2451   1.424       .  A
C2451      C2453   1.398       .  A
C2451      C2452   1.406       .  A
C2452      H2463   1.085       .  S
C2453      C2454   1.388       .  A
C2453      H2464   1.084       .  S
C2454      C2455   1.399       .  A
C2454      H2465   1.084       .  S
C2455      C2456   1.423       .  A
C2455      C2460   1.405       .  A
C2456      C2457   1.417       .  A
C2457      C2458   1.403   1_455  A
C2457      H2466   1.078       .  S
C2458      C2459   1.401       .  A
C2458      H2467   1.083       .  S
C2459      C2460   1.401   1_655  A
C2460      H2468   1.085       .  S
C2469      C2470   1.400       .  A
C2469      C2474   1.402       .  A
C2470      C2471   1.401       .  A
C2470      H2483   1.083       .  S
C2471      C2472   1.417       .  A
C2471      H2484   1.078       .  S
C2472      C2478   1.434       .  A
C2472      C2473   1.423       .  A
C2473      C2475   1.400       .  A
C2473      C2474   1.408       .  A
C2474      H2485   1.085       .  S
C2475      C2476   1.391       .  A
C2475      H2486   1.084       .  S
C2476      C2477   1.400       .  A
C2476      H2487   1.084       .  S
C2477      C2478   1.423       .  A
C2477      C2482   1.409       .  A
C2478      C2479   1.415       .  A
C2479      C2480   1.400   1_545  A
C2479      H2488   1.078   1_545  S
C2480      C2481   1.401   1_565  A
C2480      H2489   1.084       .  S
C2481      C2482   1.402       .  A
C2482      H2490   1.085       .  S
C2491      C2492   1.401       .  A
C2491      C2496   1.401       .  A
C2492      C2493   1.403   1_545  A
C2492      H2505   1.083       .  S
C2493      C2494   1.417       .  A
C2493      H2506   1.078       .  S
C2494      C2500   1.435       .  A
C2494      C2495   1.422       .  A
C2495      C2497   1.400       .  A
C2495      C2496   1.407   1_565  A
C2496      H2507   1.085       .  S
C2497      C2498   1.391       .  A
C2497      H2508   1.084       .  S
C2498      C2499   1.399       .  A
C2498      H2509   1.084       .  S
C2499      C2500   1.424       .  A
C2499      C2504   1.409       .  A
C2500      C2501   1.416       .  A
C2501      C2502   1.401       .  A
C2501      H2510   1.078       .  S
C2502      C2503   1.400       .  A
C2502      H2511   1.084       .  S
C2503      C2504   1.399       .  A
C2504      H2512   1.085       .  S
C2513      C2514   1.401       .  A
C2513      C2518   1.404       .  A
C2514      C2515   1.398       .  A
C2514      H2527   1.084       .  S
C2515      C2516   1.415       .  A
C2515      H2528   1.078       .  S
C2516      C2522   1.434       .  A
C2516      C2517   1.423       .  A
C2517      C2519   1.402       .  A
C2517      C2518   1.413       .  A
C2518      H2529   1.085       .  S
C2519      C2520   1.395       .  A
C2519      H2530   1.084       .  S
C2520      C2521   1.401       .  A
C2520      H2531   1.084       .  S
C2521      C2522   1.423       .  A
C2521      C2526   1.413       .  A
C2522      C2523   1.415       .  A
C2523      C2524   1.398       .  A
C2523      H2532   1.078       .  S
C2524      C2525   1.400       .  A
C2524      H2533   1.084       .  S
C2525      C2526   1.403       .  A
C2526      H2534   1.084       .  S
C2535      C2536   1.407       .  A
C2535      C2540   1.405       .  A
C2536      C2537   1.397       .  A
C2536      H2549   1.082       .  S
C2537      C2538   1.411       .  A
C2537      H2550   1.077       .  S
C2538      C2544   1.436       .  A
C2538      C2539   1.424       .  A
C2539      C2541   1.400       .  A
C2539      C2540   1.413       .  A
C2540      H2551   1.082       .  S
C2541      C2542   1.393       .  A
C2541      H2552   1.084       .  S
C2542      C2543   1.402       .  A
C2542      H2553   1.084       .  S
C2543      C2544   1.419       .  A
C2543      C2548   1.408       .  A
C2544      C2545   1.417       .  A
C2545      C2546   1.402       .  A
C2545      H2554   1.077       .  S
C2546      C2547   1.403       .  A
C2546      H2555   1.078       .  S
C2547      C2548   1.410       .  A
C2548      H2556   1.083       .  S
