geometry optimzed in LAMMPS
_audit_creation_date              2020-11-30 
_audit_creation_method            'lammps2cif' 
_symmetry_space_group_name_H-M    'P1' 
_symmetry_Int_Tables_number       1 
_symmetry_cell_setting            triclinic 
loop_ 
_symmetry_equiv_pos_as_xyz 
  x,y,z 
_cell_length_a                    49.68808387 
_cell_length_b                    49.522129571548504 
_cell_length_c                    49.58747825382463 
_cell_angle_alpha                 90.01429374066787 
_cell_angle_beta                  90.0809614628924 
_cell_angle_gamma                 89.91853955655691 
loop_ 
_atom_site_label 
_atom_site_type_symbol 
_atom_site_fract_x 
_atom_site_fract_y 
_atom_site_fract_z 
_atom_site_charge 
C1          C  0.13506074  0.71916524  0.97530522     0.81500
N2          N  0.10783488  0.71712876  0.97564829    -0.76800
C3          C  0.09459032  0.71601267  0.99962043     0.84000
N4          N  0.10872392  0.71663650  0.02309168    -0.76700
C5          C  0.13597515  0.71849005  0.02278678     0.84100
N6          N  0.14889844  0.72003160  0.99879894    -0.78500
C7          C  0.32712247  0.54588920  0.02158477     0.81500
N8          N  0.32214209  0.51887985  0.02209320    -0.76800
C9          C  0.31965565  0.50478552  0.99862516     0.84000
N10         N  0.32199948  0.51781216  0.97462397    -0.76700
C11         C  0.32716301  0.54467054  0.97406941     0.84100
N12         N  0.32959631  0.55845013  0.99748235    -0.78500
C13         C  0.02354477  0.22586461  0.02415999     0.81500
N14         N  0.00985637  0.22453715  0.00050217    -0.76800
C15         C  0.02292688  0.22416566  0.97647645     0.84000
N16         N  0.05027554  0.22506418  0.97641076    -0.76700
C17         C  0.06429221  0.22622622  0.99999274     0.84100
N18         N  0.05084516  0.22681184  0.02385802    -0.78500
C19         C  0.81897987  0.43179930  0.97762382     0.81500
N20         N  0.81751388  0.41877409  0.00167927    -0.76800
C21         C  0.81799981  0.43281964  0.02511242     0.84000
N22         N  0.82005884  0.46007738  0.02459429    -0.76700
C23         C  0.82107752  0.47336587  0.00068807     0.84100
N24         N  0.82072757  0.45918609  0.97724826    -0.78500
C25         C  0.85452441  0.01296645  0.05932206     0.81500
N26         N  0.85394647  0.98879827  0.07211520    -0.76800
C27         C  0.85160334  0.96532842  0.05831371     0.84000
N28         N  0.84960004  0.96616017  0.03098507    -0.76700
C29         C  0.85015389  0.99023410  0.01773797     0.84100
N30         N  0.85246167  0.01358303  0.03199129    -0.78500
C31         C  0.63553617  0.01354212  0.21907243     0.81500
N32         N  0.60856022  0.01317515  0.22356446    -0.76800
C33         C  0.59502586  0.98937551  0.22446325     0.84000
N34         N  0.60877822  0.96575473  0.22148000    -0.76700
C35         C  0.63578721  0.96579281  0.21692150     0.84100
N36         N  0.64897368  0.98982397  0.21568925    -0.78500
C37         C  0.35031611  0.96683839  0.94334520     0.81500
N38         N  0.35013277  0.99075186  0.92995755    -0.76800
C39         C  0.34947111  0.01454848  0.94357363     0.84000
N40         N  0.34873292  0.01431961  0.97090844    -0.76700
C41         C  0.34898660  0.99052486  0.98445032     0.84100
N42         N  0.34975380  0.96692592  0.97065031    -0.78500
C43         C  0.52513110  0.96983852  0.75957536     0.81500
N44         N  0.51307009  0.99408987  0.75576010    -0.76800
C45         C  0.52695964  0.01744037  0.75844255     0.84000
N46         N  0.55341092  0.01651994  0.76516122    -0.76700
C47         C  0.56589607  0.99229899  0.76881779     0.84100
N48         N  0.55169612  0.96899937  0.76611155    -0.78500
C49         C  0.02464176  0.71313899  0.02491744     0.81500
N50         N  0.01071395  0.71379379  0.00138670    -0.76800
C51         C  0.02354055  0.71507641  0.97728853     0.84000
N52         N  0.05085374  0.71571729  0.97685463    -0.76700
C53         C  0.06510923  0.71501953  0.00026518     0.84100
N54         N  0.05194987  0.71391388  0.02429490    -0.78500
C55         C  0.82646470  0.54373321  0.02446263     0.81500
N56         N  0.82665119  0.55731580  0.00078768    -0.76800
C57         C  0.82519143  0.54411020  0.97691621     0.84000
N58         N  0.82359073  0.51670892  0.97673835    -0.76700
C59         C  0.82308126  0.50286196  0.00044703     0.84100
N60         N  0.82450028  0.51644478  0.02421702    -0.78500
C61         C  0.13426127  0.23238064  0.97541754     0.81500
N62         N  0.10702497  0.23043566  0.97580024    -0.76800
C63         C  0.09384257  0.22727719  0.99961476     0.84000
N64         N  0.10808504  0.22572751  0.02306256    -0.76700
C65         C  0.13542365  0.22715176  0.02278957     0.84100
N66         N  0.14814806  0.23069149  0.99889208    -0.78500
C67         C  0.30823133  0.43465633  0.97540067     0.81500
N68         N  0.31215958  0.46180234  0.97540594    -0.76800
C69         C  0.31500444  0.47551750  0.99901448     0.84000
N70         N  0.31438190  0.46190158  0.02280903    -0.76700
C71         C  0.31035086  0.43478415  0.02301980     0.84100
N72         N  0.30730080  0.42138906  0.99933429    -0.78500
C73         C  0.84079022  0.96790073  0.94712639     0.81500
N74         N  0.84466429  0.96750485  0.97423128    -0.76800
C75         C  0.84699601  0.99099552  0.98825688     0.84000
N76         N  0.84561395  0.01504609  0.97497118    -0.76700
C77         C  0.84161386  0.01549100  0.94783513     0.84100
N78         N  0.83922909  0.99192220  0.93421209    -0.78500
C79         C  0.63512794  0.01531433  0.78205572     0.81500
N80         N  0.60832575  0.01521284  0.77719900    -0.76800
C81         C  0.59473917  0.99159286  0.77506654     0.84000
N82         N  0.60820150  0.96773470  0.77754909    -0.76700
C83         C  0.63518302  0.96756798  0.78247537     0.84100
N84         N  0.64835031  0.99148466  0.78452933    -0.78500
C85         C  0.34511867  0.01338217  0.05510572     0.81500
N86         N  0.34630521  0.01371692  0.02778640    -0.76800
C87         C  0.34767505  0.99015845  0.01380462     0.84000
N88         N  0.34770775  0.96618833  0.02714382    -0.76700
C89         C  0.34668658  0.96585636  0.05442413     0.84100
N90         N  0.34533990  0.98937947  0.06814144    -0.78500
C91         C  0.52672079  0.96453037  0.24068577     0.81500
N92         N  0.55327496  0.96506241  0.23438889    -0.76800
C93         C  0.56589830  0.98904083  0.23013448     0.84000
N94         N  0.55157851  0.01254505  0.23165037    -0.76700
C95         C  0.52477318  0.01208418  0.23746608     0.84100
N96         N  0.51278015  0.98797482  0.24222721    -0.78500
C97         C  0.05281611  0.04147922  0.73298149     0.81500
N98         N  0.05345512  0.01557288  0.74178789    -0.76800
C99         C  0.07724865  0.00340726  0.74770030     0.84000
N100        N  0.10064463  0.01747222  0.74512179    -0.76700
C101        C  0.10022247  0.04354928  0.73639552     0.84100
N102        N  0.07623005  0.05525089  0.73045881    -0.78500
C103        C  0.05371954  0.21536307  0.55368984     0.81500
N104        N  0.05465153  0.21889242  0.52661738    -0.76800
C105        C  0.07868004  0.22184295  0.51394327     0.84000
N106        N  0.10179921  0.22217028  0.52863288    -0.76700
C107        C  0.10101926  0.21913875  0.55587646     0.84100
N108        N  0.07684567  0.21572375  0.56818379    -0.78500
C109        C  0.10072889  0.93530691  0.76818623     0.81500
N110        N  0.07686670  0.92258244  0.77153254    -0.76800
C111        C  0.05324111  0.93572678  0.76780127     0.84000
N112        N  0.05347155  0.96212804  0.76052490    -0.76700
C113        C  0.07729005  0.97525378  0.75706031     0.84100
N114        N  0.10090134  0.96172053  0.76065560    -0.78500
C115        C  0.05563949  0.74512791  0.55808901     0.81500
N116        N  0.05547577  0.74660850  0.53068097    -0.76800
C117        C  0.07899812  0.74640130  0.51652483     0.84000
N118        N  0.10282701  0.74462196  0.52986226    -0.76700
C119        C  0.10317592  0.74288275  0.55715667     0.84100
N120        N  0.07964300  0.74321240  0.57096349    -0.78500
C121        C  0.10077300  0.93374459  0.23049228     0.81500
N122        N  0.07732946  0.92045470  0.22624555    -0.76800
C123        C  0.05330266  0.93344297  0.22690082     0.84000
N124        N  0.05282647  0.96044225  0.23229078    -0.76700
C125        C  0.07630709  0.97413916  0.23644034     0.84100
N126        N  0.10013379  0.96065781  0.23556251    -0.78500
C127        C  0.10120435  0.74563089  0.44494745     0.81500
N128        N  0.10192209  0.74623569  0.47242182    -0.76800
C129        C  0.07853315  0.74668936  0.48688751     0.84000
N130        N  0.05446609  0.74631941  0.47383405    -0.76700
C131        C  0.05363535  0.74600756  0.44653288     0.84100
N132        N  0.07694106  0.74572145  0.43244708    -0.78500
C133        C  0.05262293  0.04341676  0.25233091     0.81500
N134        N  0.07632101  0.05688735  0.25264562    -0.76800
C135        C  0.10005176  0.04434558  0.24776203     0.84000
N136        N  0.09990634  0.01733390  0.24266915    -0.76700
C137        C  0.07624281  0.00335042  0.24216863     0.84100
N138        N  0.05263539  0.01652978  0.24678540    -0.78500
C139        C  0.10326554  0.23737271  0.44515844     0.81500
N140        N  0.07963663  0.23858591  0.43152327    -0.76800
C141        C  0.05590018  0.23411240  0.44414880     0.84000
N142        N  0.05577756  0.22822593  0.47083629    -0.76700
C143        C  0.07925574  0.22702716  0.48484342     0.84100
N144        N  0.10297498  0.23156962  0.47196447    -0.78500
C145        C  0.33208494  0.51534659  0.44559394     0.81500
N146        N  0.33600850  0.51477546  0.47270951    -0.76800
C147        C  0.33908259  0.49076708  0.48573508     0.84000
N148        N  0.33875185  0.46730009  0.47140648    -0.76700
C149        C  0.33497059  0.46779747  0.44425952     0.84100
N150        N  0.33146538  0.49181673  0.43162535    -0.78500
C151        C  0.13769994  0.46568455  0.27849136     0.81500
N152        N  0.11065367  0.46538517  0.27459866    -0.76800
C153        C  0.09665534  0.48879606  0.27229784     0.84000
N154        N  0.10987818  0.51278453  0.27367952    -0.76700
C155        C  0.13693122  0.51343403  0.27772540     0.84100
N156        N  0.15064172  0.48977794  0.27999123    -0.78500
O157        O  0.28419404  0.73987979  0.17304551    -0.85200
O158        O  0.28516987  0.74070683  0.32569881    -0.85400
O159        O  0.25338509  0.69544937  0.25205659    -0.87000
O160        O  0.25236171  0.78325712  0.24656714    -0.85800
O161        O  0.28408277  0.81677407  0.24694317    -0.85400
O162        O  0.28637301  0.66299147  0.25095685    -0.86700
O163        O  0.25269910  0.74210976  0.29275994    -0.85200
O164        O  0.25204704  0.73629516  0.20597727    -0.84800
Zr165      Zr  0.27483759  0.73961250  0.24924570     2.84300
O166        O  0.30145188  0.76730653  0.27658746    -1.06800
O167        O  0.30184319  0.71273647  0.22165631    -1.07500
C168        C  0.25964454  0.73736715  0.18113336     1.07900
C169        C  0.26037234  0.74204549  0.31763591     1.07900
C170        C  0.26151000  0.67065384  0.25256275     1.10800
C171        C  0.25949980  0.80833285  0.24588481     1.08600
H172        H  0.29170903  0.70127546  0.28791319     0.34200
O173        O  0.30250468  0.71257270  0.27635748    -1.27700
H174        H  0.28963700  0.77884351  0.21040456     0.33900
O175        O  0.30089063  0.76783934  0.22186902    -1.29400
O176        O  0.37393552  0.74272631  0.32438980    -0.85200
O177        O  0.37079010  0.74036665  0.17099225    -0.86700
O178        O  0.33276131  0.66359271  0.29210183    -0.85300
O179        O  0.32686242  0.81729267  0.29318043    -0.85300
O180        O  0.33174117  0.81655790  0.20571484    -0.85000
O181        O  0.32771010  0.66441193  0.20425000    -0.84800
O182        O  0.40611765  0.69867028  0.24760073    -0.85200
O183        O  0.40479709  0.78531332  0.24856587    -0.84700
O184        O  0.37447537  0.66494407  0.24739493    -0.85700
O185        O  0.37194692  0.81759798  0.25107631    -0.84900
O186        O  0.33234685  0.69619724  0.32491164    -0.85300
O187        O  0.32621307  0.69761315  0.17199766    -0.85000
O188        O  0.32978163  0.78462959  0.17241993    -0.84700
O189        O  0.32880144  0.78413950  0.32548495    -0.85100
O190        O  0.40615040  0.74341369  0.29130081    -0.85400
O191        O  0.40345313  0.74235629  0.20360534    -0.86700
Zr192      Zr  0.32936459  0.74027620  0.30336957     2.83100
Zr193      Zr  0.32810171  0.74090746  0.19461265     2.83500
Zr194      Zr  0.32988055  0.68593326  0.24852360     2.84100
Zr195      Zr  0.32809957  0.79504817  0.24936920     2.83400
Zr196      Zr  0.38279923  0.74158011  0.24817113     2.84200
O197        O  0.35527280  0.76867471  0.22136351    -1.07300
O198        O  0.35679276  0.71357881  0.27571622    -1.06800
C199        C  0.39865033  0.74398458  0.31621533     1.07900
C200        C  0.39553256  0.74139744  0.17878226     1.10500
C201        C  0.33328200  0.67136113  0.31696653     1.08100
C202        C  0.32776007  0.80907401  0.31789275     1.08400
C203        C  0.33179066  0.80923295  0.18076308     1.08000
C204        C  0.32629732  0.67270563  0.17956072     1.07600
C205        C  0.39901302  0.67365024  0.24702698     1.08000
C206        C  0.39690171  0.81007916  0.25021840     1.07500
H207        H  0.36734430  0.70265629  0.20945270     0.34200
O208        O  0.35618986  0.71367536  0.22098005    -1.28400
H209        H  0.36678650  0.77952975  0.28729228     0.34200
O210        O  0.35572653  0.76808447  0.27612179    -1.29800
C211        C  0.52307349  0.23486524  0.47560205     0.81500
N212        N  0.51022249  0.23903775  0.49928258    -0.76800
C213        C  0.52386855  0.24015684  0.52289057     0.84000
N214        N  0.55093978  0.23663603  0.52272319    -0.76700
C215        C  0.56421906  0.23254376  0.49912544     0.84100
N216        N  0.55026261  0.23177988  0.47549063    -0.78500
C217        C  0.31069718  0.04651080  0.47923221     0.81500
N218        N  0.30802302  0.05878281  0.50360384    -0.76800
C219        C  0.30724871  0.04413266  0.52669146     0.84000
N220        N  0.30933330  0.01693443  0.52542207    -0.76700
C221        C  0.31168503  0.00430688  0.50128281     0.84100
N222        N  0.31244801  0.01909340  0.47822287    -0.78500
O223        O  0.32562698  0.16387897  0.79466518    -0.85200
O224        O  0.32883492  0.31699189  0.79185191    -0.85400
O225        O  0.37278377  0.24414948  0.82554161    -0.87000
O226        O  0.28480229  0.24111977  0.82448828    -0.85800
O227        O  0.25199473  0.24090719  0.79202646    -0.85400
O228        O  0.40508871  0.24327813  0.79278089    -0.86700
O229        O  0.32746561  0.28445623  0.82475487    -0.85200
O230        O  0.32812461  0.19726100  0.82655592    -0.84800
Zr231      Zr  0.32884424  0.24063276  0.80321114     2.84300
O232        O  0.30214422  0.26810578  0.77545655    -1.06800
O233        O  0.35569928  0.21193148  0.77729548    -1.07500
C234        C  0.32654774  0.17223648  0.81929892     1.07900
C235        C  0.32773660  0.30924656  0.81680851     1.07900
C236        C  0.39755805  0.24541618  0.81758054     1.10800
C237        C  0.25993724  0.24075624  0.81687496     1.08600
H238        H  0.36746985  0.27895838  0.78656164     0.34200
O239        O  0.35630751  0.26729745  0.77576313    -1.27700
H240        H  0.28925475  0.20263388  0.78791339     0.33900
O241        O  0.30086185  0.21342009  0.77670307    -1.29400
O242        O  0.33311808  0.31407243  0.70269907    -0.85200
O243        O  0.32805197  0.16101453  0.70794613    -0.86700
O244        O  0.40593463  0.28162811  0.74596639    -0.85300
O245        O  0.25351476  0.28503418  0.74508674    -0.85300
O246        O  0.25167041  0.19773359  0.74706420    -0.85000
O247        O  0.40397608  0.19488949  0.75234649    -0.84800
O248        O  0.37379727  0.23699164  0.67345309    -0.85200
O249        O  0.28596963  0.23584615  0.67156435    -0.84700
O250        O  0.40625051  0.23750074  0.70632892    -0.85700
O251        O  0.25346396  0.23704802  0.70440127    -0.84900
O252        O  0.37435387  0.31534142  0.74633417    -0.85300
O253        O  0.37121384  0.16231222  0.75258134    -0.85000
O254        O  0.28275278  0.16363712  0.74817178    -0.84700
O255        O  0.28654711  0.31745494  0.74567347    -0.85100
O256        O  0.33096677  0.28037719  0.67080561    -0.85400
O257        O  0.32950065  0.19274170  0.67437913    -0.86700
Zr258      Zr  0.32987153  0.29427637  0.74771506     2.83100
Zr259      Zr  0.32753977  0.18488137  0.75052671     2.83500
Zr260      Zr  0.38279132  0.23870111  0.74941523     2.84100
Zr261      Zr  0.27484647  0.24080989  0.74841180     2.83400
Zr262      Zr  0.32944361  0.23764371  0.69460809     2.84200
O263        O  0.30141129  0.21204394  0.72227964    -1.07300
O264        O  0.35642541  0.26555955  0.72130193    -1.06800
C265        C  0.33290535  0.30528553  0.67812304     1.07900
C266        C  0.32862793  0.16810113  0.68295059     1.10500
C267        C  0.39891721  0.30669883  0.74524681     1.08100
C268        C  0.26172716  0.30976617  0.74433047     1.08400
C269        C  0.25821068  0.17251818  0.74694267     1.08000
C270        C  0.39603385  0.17014678  0.75294766     1.07600
C271        C  0.39858331  0.23708637  0.68144638     1.08000
C272        C  0.26124620  0.23524693  0.67962651     1.07500
H273        H  0.36709154  0.19890621  0.71211899     0.34200
O274        O  0.35582983  0.21061308  0.72277724    -1.28400
H275        H  0.29176762  0.27766675  0.70865308     0.34200
O276        O  0.30259137  0.26673461  0.72052898    -1.29800
C277        C  0.52391354  0.76844398  0.47424663     0.81500
N278        N  0.55102371  0.76436490  0.47513139    -0.76800
C279        C  0.56396245  0.76176953  0.49928200     0.84000
N280        N  0.54961460  0.76304485  0.52258200    -0.76700
C281        C  0.52257646  0.76714582  0.52200558     0.84100
N282        N  0.51009646  0.76971477  0.49781336    -0.78500
C283        C  0.31487794  0.93385809  0.52474590     0.81500
N284        N  0.31423930  0.96116765  0.52438156    -0.76800
C285        C  0.31333099  0.97481267  0.50067477     0.84000
N286        N  0.31317829  0.96099743  0.47696239    -0.76700
C287        C  0.31371700  0.93352441  0.47706557     0.84100
N288        N  0.31462174  0.92023745  0.50100955    -0.78500
C289        C  0.33994422  0.46563708  0.55616073     0.81500
N290        N  0.34204209  0.48924324  0.56994255    -0.76800
C291        C  0.34337465  0.51322921  0.55687857     0.84000
N292        N  0.34262553  0.51362388  0.52949335    -0.76700
C293        C  0.34108200  0.49014891  0.51533252     0.84100
N294        N  0.33961519  0.46623323  0.52874408    -0.78500
C295        C  0.13568777  0.46596310  0.72401133     0.81500
N296        N  0.14922617  0.48977420  0.72394584    -0.76800
C297        C  0.13600299  0.51358579  0.72689961     0.84000
N298        N  0.10885408  0.51351542  0.72980713    -0.76700
C299        C  0.09499300  0.48983977  0.72967138     0.84100
N300        N  0.10847999  0.46609651  0.72695207    -0.78500
O301        O  0.28708170  0.73694875  0.82664797    -0.85200
O302        O  0.28574592  0.74270345  0.67403729    -0.85400
O303        O  0.25167108  0.78164947  0.75480476    -0.87000
O304        O  0.25543354  0.69474803  0.74724900    -0.85800
O305        O  0.28896235  0.66307276  0.74656430    -0.85400
O306        O  0.28263381  0.81583480  0.75594237    -0.86700
O307        O  0.25396499  0.73994771  0.70733594    -0.85200
O308        O  0.25391888  0.73480553  0.79467821    -0.84800
Zr309      Zr  0.27597789  0.73919558  0.75120486     2.84300
O310        O  0.30364623  0.71376081  0.72304434    -1.06800
O311        O  0.30193081  0.76679750  0.77943534    -1.07500
C312        C  0.26218641  0.73471069  0.81936155     1.07900
C313        C  0.26121348  0.74126620  0.68236392     1.07900
C314        C  0.25814271  0.80683240  0.75642866     1.10800
C315        C  0.26390166  0.67013110  0.74567407     1.08600
H316        H  0.28964050  0.77993176  0.71401041     0.34200
O317        O  0.30142326  0.76861381  0.72463495    -1.27700
H318        H  0.29345841  0.69988625  0.78822235     0.33900
O319        O  0.30419081  0.71197216  0.77740725    -1.29400
O320        O  0.37229601  0.74508658  0.67341318    -0.85200
O321        O  0.37494294  0.73728019  0.82639403    -0.86700
O322        O  0.32766712  0.82006812  0.71050767    -0.85300
O323        O  0.33009315  0.66577126  0.70507044    -0.85300
O324        O  0.33253635  0.66332615  0.79259159    -0.85000
O325        O  0.32882437  0.81556265  0.79793638    -0.84800
O326        O  0.40502731  0.78778674  0.75225138    -0.85200
O327        O  0.40793309  0.70025695  0.74715168    -0.84700
O328        O  0.37123835  0.81926229  0.75376783    -0.85700
O329        O  0.37674823  0.66628935  0.74747284    -0.84900
O330        O  0.32919199  0.78806952  0.67701316    -0.85300
O331        O  0.33196064  0.78182821  0.82953285    -0.85000
O332        O  0.33210957  0.69570416  0.82557027    -0.84700
O333        O  0.32826648  0.69892577  0.67284063    -0.85100
O334        O  0.40570525  0.74679956  0.70526548    -0.85400
O335        O  0.40672691  0.73961835  0.79301019    -0.86700
Zr336      Zr  0.32919780  0.74275778  0.69634125     2.83100
Zr337      Zr  0.33094662  0.73960116  0.80471728     2.83500
Zr338      Zr  0.32787244  0.79576170  0.75295122     2.84100
Zr339      Zr  0.33204017  0.68670260  0.74915715     2.83400
Zr340      Zr  0.38426706  0.74323927  0.74950349     2.84200
O341        O  0.35879430  0.71416663  0.77648512    -1.07300
O342        O  0.35544660  0.77042676  0.72406670    -1.06800
C343        C  0.39722680  0.74669658  0.68058959     1.07900
C344        C  0.39951352  0.73727641  0.81792407     1.10500
C345        C  0.32860929  0.81274779  0.68555778     1.08100
C346        C  0.32866841  0.67385295  0.68039012     1.08400
C347        C  0.33226040  0.67099293  0.81752822     1.08000
C348        C  0.33078653  0.80684605  0.82242474     1.07600
C349        C  0.39639651  0.81238333  0.75365249     1.08000
C350        C  0.40123030  0.67506466  0.74681763     1.07500
H351        H  0.36808887  0.77956916  0.78998955     0.34200
O352        O  0.35691621  0.76863341  0.77838815    -1.28400
H353        H  0.36918254  0.70492390  0.71003838     0.34200
O354        O  0.35789327  0.71542845  0.72192671    -1.29800
C355        C  0.82331020  0.51487810  0.44960733     0.81500
N356        N  0.81827377  0.51450067  0.47649535    -0.76800
C357        C  0.81614140  0.49061387  0.48973156     0.84000
N358        N  0.81856711  0.46705415  0.47594601    -0.76700
C359        C  0.82360423  0.46721100  0.44909901     0.84100
N360        N  0.82623428  0.49118864  0.43603123    -0.78500
C361        C  0.02771742  0.51137118  0.25591629     0.81500
N362        N  0.05415853  0.51170298  0.26265125    -0.76800
C363        C  0.06766049  0.48815884  0.26658793     0.84000
N364        N  0.05441758  0.46416581  0.26420460    -0.76700
C365        C  0.02783156  0.46381927  0.25756850     0.84100
N366        N  0.01477864  0.48750056  0.25340346    -0.78500
C367        C  0.60331570  0.54529707  0.23055230     0.81500
N368        N  0.60251987  0.51788162  0.23059111    -0.76800
C369        C  0.57853653  0.50475188  0.23279266     0.84000
N370        N  0.55537493  0.51914366  0.23548025    -0.76700
C371        C  0.55613916  0.54654750  0.23590510     0.84100
N372        N  0.58007756  0.55926489  0.23326009    -0.78500
C373        C  0.60207103  0.73345149  0.05676227     0.81500
N374        N  0.60252780  0.73430706  0.02938762    -0.76800
C375        C  0.57916984  0.73388216  0.01500741     0.84000
N376        N  0.55518252  0.73267069  0.02802911    -0.76700
C377        C  0.55449089  0.73164218  0.05533595     0.84100
N378        N  0.57791791  0.73207865  0.06937024    -0.78500
O379        O  0.83100632  0.81239268  0.20385792    -0.85200
O380        O  0.82886598  0.65906807  0.20923042    -0.85400
O381        O  0.87359146  0.73167392  0.17425056    -0.87000
O382        O  0.78629186  0.73573176  0.17348928    -0.85800
O383        O  0.75337328  0.73582073  0.20608309    -0.85400
O384        O  0.90638120  0.73096938  0.20677726    -0.86700
O385        O  0.82741277  0.69114150  0.17578821    -0.85200
O386        O  0.83204007  0.77890435  0.17188051    -0.84800
Zr387      Zr  0.82982719  0.73575542  0.19600074     2.84300
O388        O  0.80200075  0.71046401  0.22436970    -1.06800
O389        O  0.85775540  0.76296161  0.22228131    -1.07500
C390        C  0.83167866  0.80397904  0.17922574     1.07900
C391        C  0.82784449  0.66650501  0.18427286     1.07900
C392        C  0.89839150  0.72999761  0.18197605     1.10800
C393        C  0.76155493  0.73524270  0.18135320     1.08600
H394        H  0.86700358  0.69616013  0.21325366     0.34200
O395        O  0.85621275  0.70828265  0.22396108    -1.27700
H396        H  0.79237440  0.77552130  0.21000010     0.33900
O397        O  0.80304690  0.76454756  0.22196558    -1.29400
O398        O  0.82746203  0.66239407  0.29699231    -0.85200
O399        O  0.83083502  0.81565519  0.29146118    -0.86700
O400        O  0.90531753  0.69114856  0.25219498    -0.85300
O401        O  0.75239670  0.69537740  0.25106883    -0.85300
O402        O  0.75464094  0.78437861  0.24479229    -0.85000
O403        O  0.90710093  0.77845291  0.24495402    -0.84800
O404        O  0.87289717  0.73709321  0.32701244    -0.85200
O405        O  0.78574198  0.74360595  0.32611893    -0.84700
O406        O  0.90570247  0.73556729  0.29459003    -0.85700
O407        O  0.75241025  0.74489196  0.29407683    -0.84900
O408        O  0.87183674  0.65955948  0.25369267    -0.85300
O409        O  0.87540181  0.81215591  0.24364231    -0.85000
O410        O  0.78830651  0.81602193  0.24522189    -0.84700
O411        O  0.78459192  0.66197440  0.25050087    -0.85100
O412        O  0.82762453  0.69615563  0.32859493    -0.85400
O413        O  0.83149038  0.78351128  0.32487744    -0.86700
Zr414      Zr  0.82850421  0.68301053  0.25228385     2.83100
Zr415      Zr  0.83102152  0.79180958  0.24836153     2.83500
Zr416      Zr  0.88404395  0.73553112  0.25037819     2.84100
Zr417      Zr  0.77489751  0.73933670  0.25024752     2.83400
Zr418      Zr  0.82948671  0.73910277  0.30436486     2.84200
O419        O  0.80297836  0.76656626  0.27657543    -1.07300
O420        O  0.85636130  0.71008702  0.27872246    -1.06800
C421        C  0.82712922  0.67099933  0.32161316     1.07900
C422        C  0.83140765  0.80814395  0.31641301     1.10500
C423        C  0.89691830  0.66648996  0.25323169     1.08100
C424        C  0.76002060  0.67037501  0.25025780     1.08400
C425        C  0.76330806  0.80902690  0.24345747     1.08000
C426        C  0.89987609  0.80338272  0.24237377     1.07600
C427        C  0.89769830  0.73570461  0.31940220     1.08000
C428        C  0.76083482  0.74558558  0.31881563     1.07500
H429        H  0.86943227  0.77616020  0.28737576     0.34200
O430        O  0.85781296  0.76486811  0.27663426    -1.28400
H431        H  0.78971426  0.70129683  0.28996622     0.34200
O432        O  0.80127905  0.71172773  0.27835887    -1.29800
C433        C  0.63300307  0.74878495  0.52542098     0.81500
N434        N  0.60583531  0.75240488  0.52433758    -0.76800
C435        C  0.59329534  0.75720882  0.50029687     0.84000
N436        N  0.60806575  0.75837892  0.47724474    -0.76700
C437        C  0.63521271  0.75523690  0.47815349     0.84100
N438        N  0.64736745  0.75054908  0.50220379    -0.78500
C439        C  0.82299179  0.93201247  0.52398855     0.81500
N440        N  0.82342827  0.95940104  0.52342134    -0.76800
C441        C  0.82480428  0.97286387  0.49955051     0.84000
N442        N  0.82582103  0.95880201  0.47600342    -0.76700
C443        C  0.82538894  0.93136727  0.47635774     0.84100
N444        N  0.82399410  0.91835289  0.50032850    -0.78500
C445        C  0.60557759  0.54360247  0.75252933     0.81500
N446        N  0.60443185  0.51640904  0.74968197    -0.76800
C447        C  0.58038212  0.50394504  0.74586015     0.84000
N448        N  0.55745871  0.51886272  0.74438759    -0.76700
C449        C  0.55854004  0.54617070  0.74666707     0.84100
N450        N  0.58263573  0.55840682  0.75090825    -0.78500
C451        C  0.55777124  0.73383620  0.94352140     0.81500
N452        N  0.55676393  0.73311213  0.97089217    -0.76800
C453        C  0.57992819  0.73456490  0.98553405     0.84000
N454        N  0.60398119  0.73659922  0.97275660    -0.76700
C455        C  0.60497124  0.73735801  0.94547645     0.84100
N456        N  0.58187374  0.73588776  0.93112280    -0.78500
C457        C  0.81317577  0.46511281  0.55943919     0.81500
N458        N  0.81117853  0.48856328  0.57350180    -0.76800
C459        C  0.81027987  0.51274914  0.56066106     0.84000
N460        N  0.81148491  0.51340748  0.53331430    -0.76700
C461        C  0.81311908  0.49005849  0.51903595     0.84100
N462        N  0.81406959  0.46605570  0.53215828    -0.78500
C463        C  0.02529628  0.51529298  0.73293179     0.81500
N464        N  0.01112390  0.49202410  0.73481990    -0.76800
C465        C  0.02379135  0.46771157  0.73569931     0.84000
N466        N  0.05114822  0.46688844  0.73391195    -0.76700
C467        C  0.06551675  0.49024928  0.73190484     0.84100
N468        N  0.05248857  0.51437644  0.73172612    -0.78500
O469        O  0.87509131  0.73745903  0.82666922    -0.85200
O470        O  0.86936836  0.74194264  0.67352447    -0.85400
O471        O  0.90622119  0.69750494  0.74698476    -0.87000
O472        O  0.90517104  0.78465294  0.75404579    -0.85800
O473        O  0.87237378  0.81736463  0.75413237    -0.85400
O474        O  0.87366713  0.66504896  0.74951151    -0.86700
O475        O  0.90282394  0.74520374  0.70545252    -0.85200
O476        O  0.90712072  0.73724172  0.79336703    -0.84800
Zr477      Zr  0.88325788  0.74084990  0.75032951     2.84300
O478        O  0.85482219  0.76813535  0.72432083    -1.06800
O479        O  0.85750831  0.71317878  0.77846746    -1.07500
C480        C  0.89966545  0.73655925  0.81833728     1.07900
C481        C  0.89425384  0.74442806  0.68083244     1.07900
C482        C  0.89846375  0.67263493  0.74740222     1.10800
C483        C  0.89712713  0.80944269  0.75529702     1.08600
H484        H  0.86600819  0.70284135  0.71145659     0.34200
O485        O  0.85526406  0.71390345  0.72338181    -1.27700
H486        H  0.86853816  0.77828138  0.79056096     0.33900
O487        O  0.85705504  0.76741766  0.77917999    -1.29400
O488        O  0.78097613  0.74214173  0.67770878    -0.85200
O489        O  0.78793897  0.73735753  0.83016926    -0.86700
O490        O  0.82648013  0.66466443  0.70860775    -0.85300
O491        O  0.82760020  0.81799075  0.71006338    -0.85300
O492        O  0.83032253  0.81571829  0.79753764    -0.85000
O493        O  0.83141427  0.66307925  0.79483717    -0.84800
O494        O  0.75341503  0.69616124  0.75336646    -0.85200
O495        O  0.75290472  0.78498322  0.75807802    -0.84700
O496        O  0.78618463  0.66368327  0.75311328    -0.85700
O497        O  0.78573459  0.81745450  0.75695173    -0.84900
O498        O  0.82346229  0.69712584  0.67571424    -0.85300
O499        O  0.83244520  0.69556918  0.82775026    -0.85000
O500        O  0.83171509  0.78312213  0.83027901    -0.84700
O501        O  0.82727023  0.78573542  0.67669500    -0.85100
O502        O  0.74938440  0.74042380  0.71142762    -0.85400
O503        O  0.75455790  0.73762480  0.79815952    -0.86700
Zr504      Zr  0.82642271  0.74127136  0.69762307     2.83100
Zr505      Zr  0.83065159  0.73982963  0.80658146     2.83500
Zr506      Zr  0.82948175  0.68657002  0.75182056     2.84100
Zr507      Zr  0.82882299  0.79475893  0.75318692     2.83400
Zr508      Zr  0.77451627  0.74061562  0.75378281     2.84200
O509        O  0.80231978  0.76746834  0.78086146    -1.07300
O510        O  0.80087682  0.71358649  0.72568225    -1.06800
C511        C  0.75635246  0.74142244  0.68635525     1.07900
C512        C  0.76306671  0.73640183  0.82271471     1.10500
C513        C  0.82408718  0.67233799  0.68392593     1.08100
C514        C  0.82752580  0.81041186  0.68517167     1.08400
C515        C  0.83165294  0.80800562  0.82238331     1.08000
C516        C  0.83252372  0.67077745  0.81967617     1.07600
C517        C  0.76131658  0.67127454  0.75352436     1.08000
C518        C  0.76099818  0.80982159  0.75883697     1.07500
H519        H  0.79206373  0.70125560  0.79123630     0.34200
O520        O  0.80266474  0.71301458  0.77991246    -1.28400
H521        H  0.78864818  0.78013714  0.71551615     0.34200
O522        O  0.80032687  0.76854955  0.72602023    -1.29800
C523        C  0.55386095  0.43403577  0.23335007     0.81500
N524        N  0.55407057  0.46152843  0.23282627    -0.76800
C525        C  0.57790732  0.47514346  0.23319501     0.84000
N526        N  0.60144445  0.46124184  0.23437827    -0.76700
C527        C  0.60133903  0.43391977  0.23541372     0.84100
N528        N  0.57757771  0.42054973  0.23482847    -0.78500
C529        C  0.60152862  0.25565796  0.05614906     0.81500
N530        N  0.57790992  0.25209158  0.06939812    -0.76800
C531        C  0.55441491  0.24959731  0.05568612     0.84000
N532        N  0.55458399  0.25084893  0.02832957    -0.76700
C533        C  0.57815734  0.25400785  0.01476261     0.84100
N534        N  0.60162791  0.25629933  0.02873748    -0.78500
O535        O  0.87150879  0.24071416  0.17425995    -0.85200
O536        O  0.87302571  0.24008249  0.32695964    -0.85400
O537        O  0.90497075  0.28397020  0.25041356    -0.87000
O538        O  0.90376821  0.19598074  0.24960772    -0.85800
O539        O  0.87118102  0.16326877  0.25093996    -0.85400
O540        O  0.87237330  0.31667179  0.25118693    -0.86700
O541        O  0.90495606  0.23924057  0.29366694    -0.85200
O542        O  0.90456452  0.24088665  0.20640966    -0.84800
Zr543      Zr  0.88240447  0.24049374  0.25031069     2.84300
O544        O  0.85571515  0.21356235  0.27813972    -1.06800
O545        O  0.85488360  0.26793755  0.22367608    -1.07500
C546        C  0.89647653  0.24077912  0.18162681     1.07900
C547        C  0.89767769  0.23918468  0.31863105     1.07900
C548        C  0.89725166  0.30885664  0.25087129     1.10800
C549        C  0.89588448  0.17109271  0.25005585     1.08600
H550        H  0.86726390  0.27935726  0.28948680     0.34200
O551        O  0.85596400  0.26814163  0.27822883    -1.27700
H552        H  0.86648112  0.20198768  0.21214440     0.33900
O553        O  0.85522940  0.21320966  0.22341648    -1.29400
O554        O  0.78500838  0.23971597  0.32742656    -0.85200
O555        O  0.78340096  0.24146092  0.17476580    -0.86700
O556        O  0.82661209  0.31723227  0.29576457    -0.85300
O557        O  0.82885941  0.16417397  0.29506116    -0.85300
O558        O  0.82946508  0.16439650  0.20758640    -0.85000
O559        O  0.82886485  0.31729876  0.20790497    -0.84800
O560        O  0.75197664  0.28401855  0.24913821    -0.85200
O561        O  0.75197806  0.19615758  0.24752170    -0.84700
O562        O  0.78416129  0.31717132  0.24850572    -0.85700
O563        O  0.78495891  0.16393815  0.24800717    -0.84900
O564        O  0.82764894  0.28468910  0.32844618    -0.85300
O565        O  0.82950624  0.28455497  0.17503107    -0.85000
O566        O  0.82902645  0.19656739  0.17429037    -0.84700
O567        O  0.82974176  0.19733888  0.32715079    -0.85100
O568        O  0.75202450  0.23801905  0.29490160    -0.85400
O569        O  0.75114333  0.24074500  0.20780573    -0.86700
Zr570      Zr  0.82873197  0.24107291  0.30536059     2.83100
Zr571      Zr  0.82776266  0.24048773  0.19651992     2.83500
Zr572      Zr  0.82806420  0.29511184  0.25151728     2.84100
Zr573      Zr  0.82825225  0.18640391  0.25118929     2.83400
Zr574      Zr  0.77399218  0.24014983  0.25117183     2.84200
O575        O  0.80079163  0.21299820  0.22362963    -1.07300
O576        O  0.80066145  0.26804053  0.27864957    -1.06800
C577        C  0.76023713  0.23819995  0.31961154     1.07900
C578        C  0.75864407  0.24160014  0.18290486     1.10500
C579        C  0.82676946  0.30961963  0.32075174     1.08100
C580        C  0.82950692  0.17236343  0.31980010     1.08400
C581        C  0.82996055  0.17187450  0.18268517     1.08000
C582        C  0.82947381  0.30933658  0.18313251     1.07600
C583        C  0.75949930  0.30892419  0.24744699     1.08000
C584        C  0.76010219  0.17136378  0.24645530     1.07500
H585        H  0.78990535  0.27885834  0.21271625     0.34200
O586        O  0.80104059  0.26764695  0.22413918    -1.28400
H587        H  0.79015019  0.20168617  0.28982015     0.34200
O588        O  0.80121488  0.21324133  0.27871673    -1.29800
C589        C  0.55499046  0.43428676  0.73662189     0.81500
N590        N  0.55546370  0.46153083  0.73992247    -0.76800
C591        C  0.57943913  0.47453221  0.74280777     0.84000
N592        N  0.60280143  0.46019895  0.74265146    -0.76700
C593        C  0.60235038  0.43298701  0.73971478     0.84100
N594        N  0.57843343  0.42030472  0.73665403    -0.78500
C595        C  0.55391715  0.25927982  0.94444750     0.81500
N596        N  0.55427407  0.25690086  0.97168546    -0.76800
C597        C  0.57807295  0.25531156  0.98513347     0.84000
N598        N  0.60162082  0.25555030  0.97109611    -0.76700
C599        C  0.60146812  0.25756647  0.94371033     0.84100
N600        N  0.57748264  0.25963778  0.93064205    -0.78500
C601        C  0.63318534  0.22026254  0.52426740     0.81500
N602        N  0.60627436  0.22486751  0.52355226    -0.76800
C603        C  0.59336789  0.22796040  0.49955044     0.84000
N604        N  0.60755629  0.22681752  0.47615553    -0.76700
C605        C  0.63457629  0.22251855  0.47664330     0.84100
N606        N  0.64708397  0.21929667  0.50076952    -0.78500
C607        C  0.81904238  0.04366445  0.47613849     0.81500
N608        N  0.81699827  0.05674505  0.50008326    -0.76800
C609        C  0.81833591  0.04304640  0.52372610     0.84000
N610        N  0.82152860  0.01586277  0.52324587    -0.76700
C611        C  0.82338205  0.00244233  0.49943238     0.84100
N612        N  0.82236241  0.01640634  0.47581997    -0.78500
O613        O  0.87546942  0.23942696  0.82427563    -0.85200
O614        O  0.87248253  0.23571555  0.67157204    -0.85400
O615        O  0.90650593  0.19557239  0.74572218    -0.87000
O616        O  0.90580625  0.28377485  0.74776477    -0.85800
O617        O  0.87243444  0.31580632  0.74720981    -0.85400
O618        O  0.87430346  0.16251695  0.74751672    -0.86700
O619        O  0.90489106  0.23911224  0.70411657    -0.85200
O620        O  0.90769552  0.23731001  0.79115102    -0.84800
Zr621      Zr  0.88407512  0.23933094  0.74834625     2.84300
O622        O  0.85631743  0.26572296  0.72092087    -1.06800
O623        O  0.85788716  0.21223986  0.77672927    -1.07500
C624        C  0.90011173  0.23789186  0.81600480     1.07900
C625        C  0.89730907  0.23703839  0.67931802     1.07900
C626        C  0.89892647  0.17060826  0.74533875     1.10800
C627        C  0.89740061  0.30852740  0.74718452     1.08600
H628        H  0.86782092  0.19933032  0.71100340     0.34200
O629        O  0.85695264  0.21069423  0.72246813    -1.27700
H630        H  0.86859945  0.27828810  0.78656006     0.33900
O631        O  0.85722321  0.26682108  0.77569237    -1.29400
O632        O  0.78546279  0.23541858  0.67330283    -0.85200
O633        O  0.78725689  0.24102140  0.82717011    -0.86700
O634        O  0.82778090  0.15952767  0.70843292    -0.85300
O635        O  0.82787534  0.31281260  0.70310812    -0.85300
O636        O  0.82950956  0.31636929  0.79193137    -0.85000
O637        O  0.83492018  0.16353647  0.79525238    -0.84800
O638        O  0.75333608  0.19506681  0.75375250    -0.85200
O639        O  0.75323266  0.28230266  0.74641424    -0.84700
O640        O  0.78631636  0.16271537  0.75492251    -0.85700
O641        O  0.78540602  0.31551380  0.74681362    -0.84900
O642        O  0.82783391  0.19180695  0.67535013    -0.85300
O643        O  0.83343002  0.19674591  0.82741133    -0.85000
O644        O  0.83128637  0.28370300  0.82455014    -0.84700
O645        O  0.82906860  0.27919709  0.67111512    -0.85100
O646        O  0.75299441  0.23527402  0.70605450    -0.85400
O647        O  0.75486532  0.24174855  0.79428182    -0.86700
Zr648      Zr  0.82927427  0.23677738  0.69513744     2.83100
Zr649      Zr  0.83070852  0.23969304  0.80367900     2.83500
Zr650      Zr  0.83031045  0.18413483  0.75088392     2.84100
Zr651      Zr  0.82914689  0.29311260  0.74824841     2.83400
Zr652      Zr  0.77560614  0.23846046  0.74989502     2.84200
O653        O  0.80262667  0.26642374  0.77654641    -1.07300
O654        O  0.80238000  0.21020913  0.72317922    -1.06800
C655        C  0.76070027  0.23475851  0.68113137     1.07900
C656        C  0.76242890  0.24201688  0.81923618     1.10500
C657        C  0.82746865  0.16703188  0.68349852     1.08100
C658        C  0.82785232  0.30408844  0.67850469     1.08400
C659        C  0.83075561  0.30852499  0.81681016     1.08000
C660        C  0.83544417  0.17184257  0.81995275     1.07600
C661        C  0.76143586  0.17038013  0.75574019     1.08000
C662        C  0.76077047  0.30728100  0.74553144     1.07500
H663        H  0.79236728  0.20098161  0.78980319     0.34200
O664        O  0.80313778  0.21179718  0.77775305    -1.28400
H665        H  0.79078889  0.27555280  0.71004638     0.34200
O666        O  0.80221970  0.26489150  0.72166925    -1.29800
O667        O  0.28263293  0.23718987  0.17537867    -0.85200
O668        O  0.28705422  0.23787249  0.32826497    -0.85400
O669        O  0.25284820  0.19291579  0.25174535    -0.87000
O670        O  0.25148844  0.28086913  0.25600982    -0.85800
O671        O  0.28379753  0.31384892  0.25319195    -0.85400
O672        O  0.28584234  0.16043830  0.24914557    -0.86700
O673        O  0.25386279  0.23550035  0.29619408    -0.85200
O674        O  0.25045751  0.23671586  0.20864771    -0.84800
Zr675      Zr  0.27424870  0.23727471  0.25162072     2.84300
O676        O  0.30166534  0.26559742  0.27747683    -1.06800
O677        O  0.30108593  0.21030163  0.22362213    -1.07500
C678        C  0.25801616  0.23690983  0.18373904     1.07900
C679        C  0.26215962  0.23613134  0.32088866     1.07900
C680        C  0.26098604  0.16816954  0.25023582     1.10800
C681        C  0.25928126  0.30577616  0.25600746     1.08600
H682        H  0.29184909  0.19920631  0.28995627     0.34200
O683        O  0.30250664  0.21066441  0.27839364    -1.27700
H684        H  0.28798554  0.27593532  0.21222586     0.33900
O685        O  0.29985414  0.26491038  0.22307027    -1.29400
O686        O  0.37426823  0.24024270  0.32472541    -0.85200
O687        O  0.37017820  0.23970081  0.17170707    -0.86700
O688        O  0.33007686  0.16201186  0.29478414    -0.85300
O689        O  0.32944196  0.31541794  0.29246280    -0.85300
O690        O  0.32478839  0.31456859  0.20472704    -0.85000
O691        O  0.32981541  0.16148843  0.20655325    -0.84800
O692        O  0.40595241  0.19585854  0.24794071    -0.85200
O693        O  0.40370257  0.28393243  0.24719859    -0.84700
O694        O  0.37378201  0.16271639  0.25100825    -0.85700
O695        O  0.37060692  0.31634250  0.24612074    -0.84900
O696        O  0.33248042  0.19535946  0.32689302    -0.85300
O697        O  0.32948497  0.19411076  0.17358526    -0.85000
O698        O  0.32549085  0.28130357  0.17275301    -0.84700
O699        O  0.33043934  0.28368813  0.32601930    -0.85100
O700        O  0.40652547  0.23974720  0.29162570    -0.85400
O701        O  0.40307046  0.23991473  0.20409129    -0.86700
Zr702      Zr  0.32992108  0.23913556  0.30434127     2.83100
Zr703      Zr  0.32727663  0.23788824  0.19566088     2.83500
Zr704      Zr  0.32935108  0.18369963  0.25049574     2.84100
Zr705      Zr  0.32767074  0.29276492  0.24897089     2.83400
Zr706      Zr  0.38277136  0.23929558  0.24861541     2.84200
O707        O  0.35487395  0.26594218  0.22147525    -1.07300
O708        O  0.35678692  0.21180573  0.27679071    -1.06800
C709        C  0.39888835  0.24032977  0.31650624     1.07900
C710        C  0.39506468  0.24025633  0.17931228     1.10500
C711        C  0.33159668  0.17033584  0.31946860     1.08100
C712        C  0.33046475  0.30842115  0.31753207     1.08400
C713        C  0.32442263  0.30633993  0.17995841     1.08000
C714        C  0.33009411  0.16935885  0.18169483     1.07600
C715        C  0.39841607  0.17094715  0.24951274     1.08000
C716        C  0.39547404  0.30871271  0.24617639     1.07500
H717        H  0.36683305  0.20008556  0.21104278     0.34200
O718        O  0.35553650  0.21114675  0.22241744    -1.28400
H719        H  0.36740862  0.27816741  0.28683979     0.34200
O720        O  0.35600673  0.26654990  0.27615038    -1.29800
C721        C  0.83159683  0.06382713  0.59626328     0.14000
C722        C  0.81945231  0.08943588  0.59692450     0.00900
C723        C  0.80485910  0.09848059  0.57440080     0.15900
C724        C  0.80362018  0.08289594  0.55101381     0.25300
C725        C  0.81706430  0.05789351  0.54962495    -0.41000
C726        C  0.83034822  0.04808721  0.57281368     0.32400
C727        C  0.82337958  0.10782375  0.62008858     0.01000
F728        F  0.79212524  0.12276113  0.57494922    -0.13300
F729        F  0.84324341  0.02389777  0.57245923    -0.13900
C730        C  0.83594020  0.13280699  0.61586464     0.15900
C731        C  0.83757999  0.15169026  0.63660202     0.25300
C732        C  0.82691678  0.14593102  0.66227747    -0.41000
C733        C  0.81537347  0.12031235  0.66688709     0.32300
C734        C  0.81359321  0.10141568  0.64586879     0.14000
F735        F  0.84654794  0.13900999  0.59141353    -0.13300
F736        F  0.80480022  0.11393561  0.69130117    -0.13800
F737        F  0.84975968  0.17567317  0.63144065    -0.16100
F738        F  0.80140881  0.07731445  0.65037865    -0.14700
F739        F  0.84576748  0.05464611  0.61782787    -0.14700
F740        F  0.78922931  0.09236759  0.52971399    -0.16100
C741        C  0.72651182  0.23828237  0.61255627     0.14000
C742        C  0.70110390  0.22720304  0.61809041     0.00900
C743        C  0.69473084  0.22002471  0.64471109     0.15900
C744        C  0.71386312  0.22279146  0.66531130     0.25300
C745        C  0.73972527  0.23310781  0.65970434    -0.41000
C746        C  0.74560423  0.24123379  0.63305844     0.32400
C747        C  0.68176260  0.22251928  0.59577853     0.01000
F748        F  0.67023141  0.20949313  0.65062221    -0.13300
F749        F  0.76978733  0.25228358  0.62671665    -0.13900
C750        C  0.68930599  0.20636648  0.57375592     0.15900
C751        C  0.67250269  0.20408031  0.55130413     0.25300
C752        C  0.64796959  0.21829146  0.55018026    -0.41000
C753        C  0.63936684  0.23261864  0.57318258     0.32300
C754        C  0.65624535  0.23483612  0.59575003     0.14000
F755        F  0.71326864  0.19314210  0.57379603    -0.13300
F756        F  0.61535525  0.24573748  0.57335519    -0.13800
F757        F  0.68040819  0.18811483  0.53049908    -0.16100
F758        F  0.64829144  0.25025023  0.61694055    -0.14700
F759        F  0.73278869  0.24646955  0.58718701    -0.14700
F760        F  0.70729669  0.21441879  0.69051769    -0.16100
C761        C  0.67376068  0.24306179  0.92185107     0.14000
C762        C  0.67441320  0.25481392  0.89598683     0.00900
C763        C  0.65153918  0.26901564  0.88694090     0.15900
C764        C  0.62801914  0.26977804  0.90235066     0.25300
C765        C  0.62703654  0.25751894  0.92797438    -0.41000
C766        C  0.65043417  0.24463458  0.93778720     0.32400
C767        C  0.69765734  0.25046719  0.87731811     0.01000
F768        F  0.65180228  0.28199740  0.86281713    -0.13300
F769        F  0.65036856  0.23223031  0.96220001    -0.13900
C770        C  0.69279309  0.24102313  0.85101807     0.15900
C771        C  0.71377085  0.23793822  0.83260952     0.25300
C772        C  0.74059718  0.24379058  0.83992804    -0.41000
C773        C  0.74574434  0.25211070  0.86670686     0.32300
C774        C  0.72447337  0.25561358  0.88512104     0.14000
F775        F  0.66748870  0.23442133  0.84302659    -0.13300
F776        F  0.77121290  0.25764434  0.87496614    -0.13800
F777        F  0.70754328  0.22894176  0.80751007    -0.16100
F778        F  0.73007892  0.26487439  0.91027592    -0.14700
F779        F  0.69519754  0.22885673  0.93122705    -0.14700
F780        F  0.60613372  0.28253376  0.89195038    -0.16100
C781        C  0.67448553  0.41055569  0.72780115     0.14000
C782        C  0.67377727  0.38411691  0.73812409     0.00900
C783        C  0.64997225  0.37443991  0.74979116     0.15900
C784        C  0.62704755  0.39060641  0.75075729     0.25300
C785        C  0.62739805  0.41689665  0.74002153    -0.41000
C786        C  0.65143539  0.42691627  0.72882600     0.32400
C787        C  0.69759922  0.36621530  0.73723069     0.01000
F788        F  0.64902806  0.34924167  0.76054409    -0.13300
F789        F  0.65234657  0.45209268  0.71801604    -0.13900
C790        C  0.72066453  0.37230551  0.75243456     0.15900
C791        C  0.74146274  0.35332583  0.75492119     0.25300
C792        C  0.73946688  0.32796709  0.74217831    -0.41000
C793        C  0.71677830  0.32243621  0.72605646     0.32300
C794        C  0.69605548  0.34137172  0.72365495     0.14000
F795        F  0.72235114  0.39602166  0.76607501    -0.13300
F796        F  0.71465694  0.29868773  0.71251682    -0.13800
F797        F  0.76286018  0.35921167  0.77091768    -0.16100
F798        F  0.67408422  0.33523193  0.70853151    -0.14700
F799        F  0.69719300  0.42019812  0.71606734    -0.14700
F800        F  0.60457406  0.38060674  0.76266865    -0.16100
C801        C  0.72185682  0.25089353  0.38382611     0.14000
C802        C  0.70190977  0.23092480  0.38242013     0.00900
C803        C  0.70065738  0.21375501  0.35995392     0.15900
C804        C  0.71937105  0.21645456  0.33908922     0.25300
C805        C  0.73969065  0.23615534  0.34074812    -0.41000
C806        C  0.74078248  0.25335884  0.36322584     0.32400
C807        C  0.68369844  0.22696932  0.40540953     0.01000
F808        F  0.68188671  0.19389152  0.35870814    -0.13300
F809        F  0.76008429  0.27266238  0.36510288    -0.13900
C810        C  0.65749191  0.23743321  0.40497871     0.15900
C811        C  0.64105650  0.23531684  0.42779374     0.25300
C812        C  0.65075314  0.22271353  0.45145167    -0.41000
C813        C  0.67692304  0.21152823  0.45125546     0.32300
C814        C  0.69319257  0.21376737  0.42847960     0.14000
F815        F  0.64820653  0.25051582  0.38276853    -0.13300
F816        F  0.68700148  0.19846050  0.47311187    -0.13800
F817        F  0.61614710  0.24658262  0.42696555    -0.16100
F818        F  0.71849784  0.20336432  0.42902725    -0.14700
F819        F  0.72311579  0.26779045  0.40535377    -0.14700
F820        F  0.71844240  0.19906616  0.31791680    -0.16100
C821        C  0.83885405  0.07202148  0.40823545     0.14000
C822        C  0.82149649  0.09434177  0.40619890     0.00900
C823        C  0.80197808  0.09863213  0.42622958     0.15900
C824        C  0.80039475  0.08131220  0.44838598     0.25300
C825        C  0.81837512  0.05948017  0.45094037    -0.41000
C826        C  0.83724224  0.05462581  0.43039517     0.32400
C827        C  0.82457529  0.11387700  0.38390475     0.01000
F828        F  0.78470568  0.11985573  0.42451093    -0.13300
F829        F  0.85524928  0.03410695  0.43259392    -0.13900
C830        C  0.82229807  0.10553070  0.35694715     0.15900
C831        C  0.82468528  0.12424710  0.33597368     0.25300
C832        C  0.82928202  0.15181113  0.34165257    -0.41000
C833        C  0.83258432  0.15977567  0.36883906     0.32300
C834        C  0.83013818  0.14102411  0.38963389     0.14000
F835        F  0.81707716  0.07930258  0.35094954    -0.13300
F836        F  0.83824621  0.18574390  0.37558229    -0.13800
F837        F  0.82196732  0.11529805  0.31022905    -0.16100
F838        F  0.83350496  0.14939252  0.41550536    -0.14700
F839        F  0.85834006  0.06796044  0.38949320    -0.14700
F840        F  0.78136453  0.08596756  0.46746998    -0.16100
C841        C  0.50519669  0.22495134  0.10835511     0.14000
C842        C  0.48177581  0.23934749  0.10148880     0.00900
C843        C  0.48178592  0.25577396  0.07840925     0.15900
C844        C  0.50523365  0.25860457  0.06300209     0.25300
C845        C  0.52905260  0.24519324  0.07061624    -0.41000
C846        C  0.52871676  0.22810457  0.09328754     0.32400
C847        C  0.45887014  0.24007603  0.12051504     0.01000
F848        F  0.45957679  0.27032723  0.07175422    -0.13300
F849        F  0.55123708  0.21457109  0.10100855    -0.13900
C850        C  0.46313981  0.25015472  0.14658046     0.15900
C851        C  0.44229437  0.25072109  0.16529000     0.25300
C852        C  0.41642706  0.24124789  0.15838287    -0.41000
C853        C  0.41182539  0.23216565  0.13176884     0.32300
C854        C  0.43297347  0.23144948  0.11302957     0.14000
F855        F  0.48764135  0.25988465  0.15385345    -0.13300
F856        F  0.38712142  0.22343277  0.12398611    -0.13800
F857        F  0.44751880  0.26101741  0.19013686    -0.16100
F858        F  0.42832349  0.22180673  0.08781738    -0.14700
F859        F  0.50544145  0.20840226  0.13020129    -0.14700
F860        F  0.50512258  0.27581453  0.04170236    -0.16100
C861        C  0.67320847  0.24441045  0.07988985     0.14000
C862        C  0.67231773  0.25600786  0.10574112     0.00900
C863        C  0.64912533  0.27001094  0.11386815     0.15900
C864        C  0.62655655  0.27102421  0.09707239     0.25300
C865        C  0.62677033  0.25801120  0.07182413    -0.41000
C866        C  0.65064181  0.24553473  0.06294492     0.32400
C867        C  0.69471800  0.25184884  0.12499523     0.01000
F868        F  0.64816399  0.28221011  0.13837928    -0.13300
F869        F  0.65161923  0.23295143  0.03863679    -0.13900
C870        C  0.72034541  0.26256060  0.11991846     0.15900
C871        C  0.74138629  0.25848712  0.13830668     0.25300
C872        C  0.73705389  0.24384433  0.16228251    -0.41000
C873        C  0.71131176  0.23292042  0.16710752     0.32300
C874        C  0.69040432  0.23687690  0.14862991     0.14000
F875        F  0.72473644  0.27773936  0.09756885    -0.13300
F876        F  0.70635791  0.21817031  0.18960119    -0.13800
F877        F  0.76568194  0.26986312  0.13315615    -0.16100
F878        F  0.66587541  0.22593165  0.15372013    -0.14700
F879        F  0.69539320  0.23064802  0.07170828    -0.14700
F880        F  0.60433406  0.28450788  0.10564097    -0.16100
C881        C  0.48153752  0.41258195  0.24669617     0.14000
C882        C  0.48187148  0.38584130  0.23726245     0.00900
C883        C  0.50513254  0.37578331  0.22483290     0.15900
C884        C  0.52812197  0.39183195  0.22269002     0.25300
C885        C  0.52834519  0.41840129  0.23300907    -0.41000
C886        C  0.50453597  0.42885261  0.24441797     0.32400
C887        C  0.45847565  0.36781778  0.24111441     0.01000
F888        F  0.50562151  0.35019843  0.21496707    -0.13300
F889        F  0.50383075  0.45433891  0.25447386    -0.13900
C890        C  0.43550401  0.37030501  0.22476394     0.15900
C891        C  0.41440030  0.35165466  0.22701011     0.25300
C892        C  0.41637113  0.32990485  0.24521350    -0.41000
C893        C  0.43907123  0.32796887  0.26205914     0.32300
C894        C  0.45987060  0.34684354  0.26011546     0.14000
F895        F  0.43404810  0.39014096  0.20592128    -0.13300
F896        F  0.44097509  0.30786434  0.28059191    -0.13800
F897        F  0.39265394  0.35413538  0.21057285    -0.16100
F898        F  0.48159431  0.34450334  0.27659337    -0.14700
F899        F  0.45927055  0.42255896  0.25902599    -0.14700
F900        F  0.55019412  0.38126457  0.21045299    -0.16100
C901        C  0.67259567  0.40993700  0.22267075     0.14000
C902        C  0.67281574  0.38565168  0.23732072     0.00900
C903        C  0.65036594  0.37860393  0.25292003     0.15900
C904        C  0.62744956  0.39479344  0.25283426     0.25300
C905        C  0.62665244  0.41853514  0.23733997    -0.41000
C906        C  0.64971983  0.42650053  0.22294268     0.32400
C907        C  0.69618683  0.36727593  0.23671584     0.01000
F908        F  0.65072742  0.35596450  0.26837063    -0.13300
F909        F  0.64976096  0.44969304  0.20833876    -0.13900
C910        C  0.72099980  0.37532785  0.24754130     0.15900
C911        C  0.74182063  0.35654022  0.25076775     0.25300
C912        C  0.73807631  0.32935913  0.24314755    -0.41000
C913        C  0.71355421  0.32182567  0.23088596     0.32300
C914        C  0.69286138  0.34061769  0.22775206     0.14000
F915        F  0.72459582  0.40108415  0.25619277    -0.13300
F916        F  0.70951935  0.29627879  0.22175759    -0.13800
F917        F  0.76517685  0.36476800  0.26235832    -0.16100
F918        F  0.66928935  0.33269036  0.21632726    -0.14700
F919        F  0.69413340  0.41711938  0.20747034    -0.14700
F920        F  0.60611769  0.38742027  0.26824997    -0.16100
C921        C  0.00014666  0.39440378  0.73259837     0.14000
C922        C  0.97445647  0.39642493  0.74434767     0.00900
C923        C  0.96600668  0.42143496  0.75465372     0.15900
C924        C  0.98215814  0.44429889  0.75205351     0.25300
C925        C  0.00755863  0.44272118  0.73945560    -0.41000
C926        C  0.01666246  0.41730953  0.73033470     0.32400
C927        C  0.95550831  0.37321926  0.74446697     0.01000
F928        F  0.94182672  0.42378103  0.76719276    -0.13300
F929        F  0.04104215  0.41475201  0.71827341    -0.13900
C930        C  0.96221573  0.34855041  0.75685407     0.15900
C931        C  0.94351793  0.32732536  0.75762443     0.25300
C932        C  0.91770871  0.33050565  0.74615734    -0.41000
C933        C  0.91119333  0.35526584  0.73373759     0.32300
C934        C  0.92992189  0.37619633  0.73271719     0.14000
F935        F  0.98654056  0.34529483  0.76893266    -0.13300
F936        F  0.88675771  0.35919915  0.72205679    -0.13800
F937        F  0.95036492  0.30404954  0.77039125    -0.16100
F938        F  0.92308272  0.39947480  0.71993393    -0.14700
F939        F  0.00879369  0.37051494  0.72230934    -0.14700
F940        F  0.97282422  0.46800606  0.76216983    -0.16100
C941        C  0.99940113  0.58380243  0.75411884     0.14000
C942        C  0.97861332  0.58788830  0.73521706     0.00900
C943        C  0.97537465  0.56927056  0.71402026     0.15900
C944        C  0.99118365  0.54598200  0.71290383     0.25300
C945        C  0.01099729  0.54127234  0.73249737    -0.41000
C946        C  0.01565274  0.56069526  0.75261104     0.32400
C947        C  0.95862325  0.60988057  0.73882910     0.01000
F948        F  0.95633815  0.57333461  0.69476332    -0.13300
F949        F  0.03475985  0.55642763  0.77175495    -0.13900
C950        C  0.96648429  0.63705629  0.74051919     0.15900
C951        C  0.94714722  0.65747383  0.74367127     0.25300
C952        C  0.91940312  0.65109833  0.74487426    -0.41000
C953        C  0.91181116  0.62367308  0.74313487     0.32300
C954        C  0.93117115  0.60344149  0.74048105     0.14000
F955        F  0.99285391  0.64391271  0.73847267    -0.13300
F956        F  0.88556579  0.61610732  0.74371217    -0.13800
F957        F  0.95575810  0.68343301  0.74530315    -0.16100
F958        F  0.92300196  0.57728806  0.73972455    -0.14700
F959        F  0.00293213  0.60129172  0.77491001    -0.14700
F960        F  0.98696702  0.52781149  0.69283008    -0.16100
C961        C  0.83971004  0.34473880  0.61515692     0.14000
C962        C  0.82044364  0.36524806  0.61848495     0.00900
C963        C  0.80234331  0.36406928  0.64014653     0.15900
C964        C  0.80470771  0.34386221  0.65944501     0.25300
C965        C  0.82494933  0.32426524  0.65713641    -0.41000
C966        C  0.84177930  0.32408085  0.63433719     0.32400
C967        C  0.82106743  0.38990109  0.60199187     0.01000
F968        F  0.78295880  0.38320380  0.64307138    -0.13300
F969        F  0.86096652  0.30474525  0.63138199    -0.13900
C970        C  0.81351098  0.38975391  0.57475256     0.15900
C971        C  0.81109224  0.41415825  0.56065291     0.25300
C972        C  0.81611711  0.43901068  0.57379443    -0.41000
C973        C  0.82464013  0.43867860  0.60090715     0.32300
C974        C  0.82727549  0.41438137  0.61468415     0.14000
F975        F  0.80761665  0.36614192  0.56214059    -0.13300
F976        F  0.83069635  0.46181841  0.61426883    -0.13800
F977        F  0.80306853  0.41340683  0.53447426    -0.16100
F978        F  0.83560572  0.41470097  0.64078843    -0.14700
F979        F  0.85730721  0.34553790  0.59425084    -0.14700
F980        F  0.78716986  0.34337191  0.68043102    -0.16100
C981        C  0.82359243  0.58475927  0.58312002     0.14000
C982        C  0.81204002  0.58471823  0.60888983     0.00900
C983        C  0.79869785  0.56162582  0.61819343     0.15900
C984        C  0.79743346  0.53848742  0.60218613     0.25300
C985        C  0.80966545  0.53803874  0.57656817    -0.41000
C986        C  0.82247734  0.56156998  0.56703797     0.32400
C987        C  0.81578940  0.60781678  0.62714407     0.01000
F988        F  0.78728167  0.56142106  0.64306610    -0.13300
F989        F  0.83516503  0.56174593  0.54280882    -0.13900
C990        C  0.80194047  0.63217907  0.62293264     0.15900
C991        C  0.80489821  0.65351288  0.64119497     0.25300
C992        C  0.82183912  0.65065153  0.66377341    -0.41000
C993        C  0.83561819  0.62611611  0.66786748     0.32300
C994        C  0.83268680  0.60496561  0.64961623     0.14000
F995        F  0.78488665  0.63491225  0.60169796    -0.13300
F996        F  0.85197359  0.62255105  0.68956335    -0.13800
F997        F  0.79020107  0.67637544  0.63758250    -0.16100
F998        F  0.84628618  0.58154325  0.65390462    -0.14700
F999        F  0.83702366  0.60683809  0.57409601    -0.14700
F1000       F  0.78426917  0.51651850  0.61183296    -0.16100
C1001       C  0.67730472  0.72513055  0.92560168     0.14000
C1002       C  0.67729958  0.73588626  0.89941730     0.00900
C1003       C  0.65440615  0.74927118  0.88963643     0.15900
C1004       C  0.63143453  0.75109142  0.90539828     0.25300
C1005       C  0.63070300  0.73897287  0.93103263    -0.41000
C1006       C  0.65404406  0.72655822  0.94135289     0.32400
C1007       C  0.70064849  0.73271198  0.88160792     0.01000
F1008       F  0.65415788  0.76021810  0.86451381    -0.13300
F1009       F  0.65391750  0.71448431  0.96593222    -0.13900
C1010       C  0.69730500  0.72012184  0.85649061     0.15900
C1011       C  0.71793338  0.72066744  0.83761825     0.25300
C1012       C  0.74245106  0.73352152  0.84374303    -0.41000
C1013       C  0.74643268  0.74444578  0.86965646     0.32300
C1014       C  0.72549497  0.74428924  0.88838889     0.14000
F1015       F  0.67365106  0.70802734  0.84994685    -0.13300
F1016       F  0.76996727  0.75663856  0.87635565    -0.13800
F1017       F  0.71373662  0.70886684  0.81323630    -0.16100
F1018       F  0.72892596  0.75684029  0.91249206    -0.14700
F1019       F  0.69932169  0.71208387  0.93532259    -0.14700
F1020       F  0.60978885  0.76452964  0.89537794    -0.16100
C1021       C  0.72718996  0.60228934  0.75692536     0.14000
C1022       C  0.69997215  0.60962081  0.75915800     0.00900
C1023       C  0.69301186  0.63711039  0.75903718     0.15900
C1024       C  0.71274120  0.65696927  0.75671858     0.25300
C1025       C  0.74022073  0.64989080  0.75484831    -0.41000
C1026       C  0.74714305  0.62215051  0.75492914     0.32400
C1027       C  0.67835898  0.58901632  0.76016255     0.01000
F1028       F  0.66681125  0.64483154  0.76045104    -0.13300
F1029       F  0.77318332  0.61401283  0.75305507    -0.13900
C1030       C  0.65866596  0.59019624  0.78050011     0.15900
C1031       C  0.63513849  0.57492199  0.77830600     0.25300
C1032       C  0.63156471  0.55723546  0.75648710    -0.41000
C1033       C  0.65231914  0.55408364  0.73754320     0.32300
C1034       C  0.67537662  0.57022485  0.73907853     0.14000
F1035       F  0.66185247  0.60688018  0.80200777    -0.13300
F1036       F  0.64940744  0.53678594  0.71649608    -0.13800
F1037       F  0.61563110  0.57767843  0.79726229    -0.16100
F1038       F  0.69385266  0.56880812  0.71898042    -0.14700
F1039       F  0.73452137  0.57586326  0.75695600    -0.14700
F1040       F  0.70461301  0.68315148  0.75616620    -0.16100
C1041       C  0.82094983  0.87368586  0.57344373     0.14000
C1042       C  0.82355362  0.88677270  0.59837351     0.00900
C1043       C  0.82380793  0.91513305  0.59918946     0.15900
C1044       C  0.82284490  0.93009901  0.57516478     0.25300
C1045       C  0.82174399  0.91683164  0.54990853    -0.41000
C1046       C  0.82013336  0.88836730  0.54959403     0.32400
C1047       C  0.82679438  0.87012912  0.62294701     0.01000
F1048       F  0.82597913  0.92831291  0.62310784    -0.13300
F1049       F  0.81807674  0.87427766  0.52621168    -0.13900
C1050       C  0.84671595  0.84990448  0.62342432     0.15900
C1051       C  0.84684210  0.83042997  0.64368027     0.25300
C1052       C  0.82795308  0.83167885  0.66460689    -0.41000
C1053       C  0.80927500  0.85300628  0.66536543     0.32300
C1054       C  0.80843014  0.87195742  0.64442910     0.14000
F1055       F  0.86556239  0.84853332  0.60365405    -0.13300
F1056       F  0.79083289  0.85447366  0.68548381    -0.13800
F1057       F  0.86534125  0.81022683  0.64278405    -0.16100
F1058       F  0.78878890  0.89104126  0.64437937    -0.14700
F1059       F  0.81947817  0.84632230  0.57212009    -0.14700
F1060       F  0.82357850  0.95745774  0.57677090    -0.16100
C1061       C  0.71707818  0.76098124  0.62378091     0.14000
C1062       C  0.69536658  0.74281547  0.62421494     0.00900
C1063       C  0.69247926  0.72543416  0.64644921     0.15900
C1064       C  0.71180125  0.72541711  0.66726259     0.25300
C1065       C  0.73454568  0.74243467  0.66579320    -0.41000
C1066       C  0.73661445  0.76053667  0.64408149     0.32400
C1067       C  0.67775225  0.74067054  0.60001093     0.01000
F1068       F  0.67168886  0.70769223  0.64738150    -0.13300
F1069       F  0.75760633  0.77798845  0.64256739    -0.13900
C1070       C  0.68945870  0.73395243  0.57518101     0.15900
C1071       C  0.67465195  0.73556274  0.55130595     0.25300
C1072       C  0.64745479  0.74396009  0.55151499    -0.41000
C1073       C  0.63512930  0.74878689  0.57676916     0.32300
C1074       C  0.65019867  0.74715981  0.60079524     0.14000
F1075       F  0.71570318  0.72633218  0.57399702    -0.13300
F1076       F  0.60885069  0.75616347  0.57827403    -0.13800
F1077       F  0.68737039  0.72922891  0.52792267    -0.16100
F1078       F  0.63818602  0.75312457  0.62463738    -0.14700
F1079       F  0.71958737  0.77894393  0.60325194    -0.14700
F1080       F  0.70897044  0.70785918  0.68809132    -0.16100
C1081       C  0.72753265  0.73864320  0.38731669     0.14000
C1082       C  0.70439580  0.75465150  0.38451003     0.00900
C1083       C  0.69954351  0.76778500  0.35983626     0.15900
C1084       C  0.71747496  0.76460113  0.33811845     0.25300
C1085       C  0.74078151  0.74850195  0.34095689    -0.41000
C1086       C  0.74558388  0.73573694  0.36592817     0.32400
C1087       C  0.68545628  0.75721417  0.40749597     0.01000
F1088       F  0.67782160  0.78423001  0.35707873    -0.13300
F1089       F  0.76766917  0.71997128  0.36959744    -0.13900
C1090       C  0.69370572  0.76993664  0.43144252     0.15900
C1091       C  0.67707968  0.76978613  0.45420223     0.25300
C1092       C  0.65174818  0.75708687  0.45338122    -0.41000
C1093       C  0.64308518  0.74520048  0.42910137     0.32300
C1094       C  0.65990824  0.74509902  0.40640355     0.14000
F1095       F  0.71805113  0.78228391  0.43283333    -0.13300
F1096       F  0.61894630  0.73245476  0.42775200    -0.13800
F1097       F  0.68570910  0.78220600  0.47705240    -0.16100
F1098       F  0.65179401  0.73207129  0.38372658    -0.14700
F1099       F  0.73249489  0.72547115  0.41082268    -0.14700
F1100       F  0.71254902  0.77803612  0.31475991    -0.16100
C1101       C  0.81304427  0.86885456  0.35877378     0.14000
C1102       C  0.83121874  0.86603904  0.38030438     0.00900
C1103       C  0.85022209  0.84511027  0.37999737     0.15900
C1104       C  0.85075100  0.82679252  0.35864495     0.25300
C1105       C  0.83226737  0.82916354  0.33730358    -0.41000
C1106       C  0.81361146  0.85052881  0.33727326     0.32400
C1107       C  0.82903298  0.88343716  0.40423564     0.01000
F1108       F  0.86780723  0.84206724  0.40076181    -0.13300
F1109       F  0.79501799  0.85269162  0.31729388    -0.13900
C1110       C  0.81502274  0.87409018  0.42684643     0.15900
C1111       C  0.81349773  0.88987400  0.45008682     0.25300
C1112       C  0.82604642  0.91540127  0.45111663    -0.41000
C1113       C  0.83999607  0.92476376  0.42824399     0.32300
C1114       C  0.84164415  0.90873414  0.40502627     0.14000
F1115       F  0.80303681  0.84945561  0.42645308    -0.13300
F1116       F  0.85291446  0.94889361  0.42868762    -0.13800
F1117       F  0.79945585  0.88019423  0.47146213    -0.16100
F1118       F  0.85617800  0.91749466  0.38359272    -0.14700
F1119       F  0.79411637  0.88865005  0.35918379    -0.14700
F1120       F  0.86921816  0.80656685  0.35885029    -0.16100
C1121       C  0.67655076  0.73485415  0.07646444     0.14000
C1122       C  0.67489192  0.73363562  0.10468442     0.00900
C1123       C  0.64955995  0.73293913  0.11699897     0.15900
C1124       C  0.62614315  0.73303784  0.10151056     0.25300
C1125       C  0.62740057  0.73387037  0.07303045    -0.41000
C1126       C  0.65305254  0.73500651  0.06070804     0.32400
C1127       C  0.69928138  0.73288897  0.12179351     0.01000
F1128       F  0.64747597  0.73239712  0.14430450    -0.13300
F1129       F  0.65559499  0.73617068  0.03347779    -0.13900
C1130       C  0.71627226  0.75548943  0.12366731     0.15900
C1131       C  0.73718485  0.75590724  0.14262370     0.25300
C1132       C  0.74087094  0.73403915  0.16026853    -0.41000
C1133       C  0.72447574  0.71113791  0.15784642     0.32300
C1134       C  0.70408716  0.71039865  0.13842426     0.14000
F1135       F  0.71188312  0.77753325  0.10798767    -0.13300
F1136       F  0.72827209  0.68952137  0.17427508    -0.13800
F1137       F  0.75313744  0.77807083  0.14457693    -0.16100
F1138       F  0.68872038  0.68787292  0.13601105    -0.14700
F1139       F  0.70094623  0.73533029  0.06417444    -0.14700
F1140       F  0.60227244  0.73236334  0.11476709    -0.16100
C1141       C  0.69492161  0.63231180  0.26016521     0.14000
C1142       C  0.69792603  0.61108861  0.24158583     0.00900
C1143       C  0.72187181  0.60870964  0.22685455     0.15900
C1144       C  0.74235243  0.62774795  0.23016633     0.25300
C1145       C  0.73903096  0.64952032  0.24815472    -0.41000
C1146       C  0.71531454  0.65144568  0.26340577     0.32400
C1147       C  0.67508894  0.59292203  0.23608861     0.01000
F1148       F  0.72488168  0.58867877  0.20839922    -0.13300
F1149       F  0.71198971  0.67172468  0.28154272    -0.13900
C1150       C  0.65202965  0.60333526  0.22356614     0.15900
C1151       C  0.62926059  0.58726007  0.22028780     0.25300
C1152       C  0.62903459  0.56038695  0.22972630    -0.41000
C1153       C  0.65276203  0.54952085  0.24097116     0.32300
C1154       C  0.67563881  0.56575560  0.24417043     0.14000
F1155       F  0.65139729  0.62941008  0.21508570    -0.13300
F1156       F  0.65333560  0.52381293  0.25045168    -0.13800
F1157       F  0.60719908  0.59828908  0.20838650    -0.16100
F1158       F  0.69780743  0.55541441  0.25644867    -0.14700
F1159       F  0.67200999  0.63464325  0.27488105    -0.14700
F1160       F  0.76487862  0.62567013  0.21480761    -0.16100
C1161       C  0.99563050  0.57826337  0.27204097     0.14000
C1162       C  0.97734516  0.58114293  0.25052893     0.00900
C1163       C  0.97766119  0.56208970  0.22945131     0.15900
C1164       C  0.99488419  0.53978480  0.23068802     0.25300
C1165       C  0.01246738  0.53656124  0.25266231    -0.41000
C1166       C  0.01324823  0.55628080  0.27294009     0.32400
C1167       C  0.95693833  0.60302274  0.25100469     0.01000
F1168       F  0.96098529  0.56485191  0.20790069    -0.13300
F1169       F  0.02968257  0.55322053  0.29462882    -0.13900
C1170       C  0.96468794  0.63006443  0.25433661     0.15900
C1171       C  0.94531658  0.65054815  0.25578140     0.25300
C1172       C  0.91759546  0.64451384  0.25334905    -0.41000
C1173       C  0.90999266  0.61717006  0.25038601     0.32300
C1174       C  0.92943126  0.59675226  0.24936691     0.14000
F1175       F  0.99114901  0.63671581  0.25599717    -0.13300
F1176       F  0.88372319  0.60991223  0.24846971    -0.13800
F1177       F  0.95391785  0.67623760  0.25982611    -0.16100
F1178       F  0.92128352  0.57064997  0.24743049    -0.14700
F1179       F  0.99533967  0.59585889  0.29302933    -0.14700
F1180       F  0.99420114  0.52113424  0.21060211    -0.16100
C1181       C  0.96580575  0.34352036  0.24740234     0.14000
C1182       C  0.95886229  0.37041129  0.25301866     0.00900
C1183       C  0.93183449  0.37690452  0.25818135     0.15900
C1184       C  0.91195792  0.35706286  0.25747160     0.25300
C1185       C  0.91857920  0.33001644  0.25146290    -0.41000
C1186       C  0.94588312  0.32351445  0.24642629     0.32400
C1187       C  0.97911806  0.39233686  0.25215642     0.01000
F1188       F  0.92462249  0.40272518  0.26397282    -0.13300
F1189       F  0.95339410  0.29795336  0.23992044    -0.13900
C1190       C  0.97495912  0.41417209  0.23461880     0.15900
C1191       C  0.99138129  0.43688763  0.23592624     0.25300
C1192       C  0.01266130  0.43825564  0.25465644    -0.41000
C1193       C  0.01765956  0.41588627  0.27150326     0.32300
C1194       C  0.00104820  0.39298365  0.27014936     0.14000
F1195       F  0.95435732  0.41378399  0.21659078    -0.13300
F1196       F  0.03736228  0.41689915  0.29047741    -0.13800
F1197       F  0.98604564  0.45783233  0.21906615    -0.16100
F1198       F  0.00546085  0.37214061  0.28738775    -0.14700
F1199       F  0.99173967  0.33676360  0.24199929    -0.14700
F1200       F  0.88623184  0.36455801  0.26288658    -0.16100
C1201       C  0.80617561  0.58459073  0.42333993     0.14000
C1202       C  0.82627224  0.58820661  0.40381743     0.00900
C1203       C  0.84643849  0.56857272  0.40079746     0.15900
C1204       C  0.84576019  0.54488408  0.41607361     0.25300
C1205       C  0.82523873  0.54079662  0.43509670    -0.41000
C1206       C  0.80586028  0.56116017  0.43917290     0.32400
C1207       C  0.82451376  0.61041822  0.38407139     0.01000
F1208       F  0.86623855  0.57198569  0.38227018    -0.13300
F1209       F  0.78564826  0.55758384  0.45722151    -0.13900
C1210       C  0.83519118  0.63600773  0.38967648     0.15900
C1211       C  0.83588767  0.65587078  0.36951771     0.25300
C1212       C  0.82585780  0.65035841  0.34340553    -0.41000
C1213       C  0.81463678  0.62469812  0.33825891     0.32300
C1214       C  0.81379857  0.60509742  0.35848151     0.14000
F1215       F  0.84550804  0.64150508  0.41444203    -0.13300
F1216       F  0.80434510  0.61845492  0.31366010    -0.13800
F1217       F  0.84736002  0.68006378  0.37528794    -0.16100
F1218       F  0.80273285  0.58062522  0.35304530    -0.14700
F1219       F  0.78615073  0.60306452  0.42606982    -0.14700
F1220       F  0.86499384  0.52579692  0.41208372    -0.16100
C1221       C  0.82906963  0.34501645  0.38956398     0.14000
C1222       C  0.82786137  0.37232146  0.38205877     0.00900
C1223       C  0.82506623  0.37889196  0.35466655     0.15900
C1224       C  0.82416402  0.35870194  0.33496979     0.25300
C1225       C  0.82626098  0.33113534  0.34210496    -0.41000
C1226       C  0.82830395  0.32461973  0.36987573     0.32400
C1227       C  0.82909127  0.39437086  0.40236406     0.01000
F1228       F  0.82281401  0.40511885  0.34695434    -0.13300
F1229       F  0.82979419  0.29854547  0.37819316    -0.13900
C1230       C  0.84892132  0.41449631  0.40016074     0.15900
C1231       C  0.84732232  0.43802237  0.41567105     0.25300
C1232       C  0.82630241  0.44151466  0.43423399    -0.41000
C1233       C  0.80765886  0.42048082  0.43803792     0.32300
C1234       C  0.80896970  0.39711035  0.42211244     0.14000
F1235       F  0.86961963  0.41151210  0.38256346    -0.13300
F1236       F  0.78725818  0.42322740  0.45603647    -0.13800
F1237       F  0.86634219  0.45743517  0.41257481    -0.16100
F1238       F  0.78979314  0.37783368  0.42501890    -0.14700
F1239       F  0.83157682  0.33808953  0.41594602    -0.14700
F1240       F  0.82108628  0.36643250  0.30888526    -0.16100
C1241       C  0.43890939  0.60848620  0.73815534     0.14000
C1242       C  0.46567630  0.61632241  0.74303104     0.00900
C1243       C  0.47099507  0.64349032  0.74939557     0.15900
C1244       C  0.45034584  0.66258308  0.74972925     0.25300
C1245       C  0.42336075  0.65475339  0.74554346    -0.41000
C1246       C  0.41792501  0.62727814  0.74014102     0.32400
C1247       C  0.48826061  0.59659115  0.74154467     0.01000
F1248       F  0.49631079  0.65164336  0.75576774    -0.13300
F1249       F  0.39234768  0.61846185  0.73627055    -0.13900
C1250       C  0.51198990  0.60345506  0.72767741     0.15900
C1251       C  0.53483506  0.58716914  0.72960497     0.25300
C1252       C  0.53392672  0.56265721  0.74382153    -0.41000
C1253       C  0.50952495  0.55443281  0.75554283     0.32300
C1254       C  0.48710081  0.57160745  0.75513023     0.14000
F1255       F  0.51313081  0.62612408  0.71231128    -0.13300
F1256       F  0.50775119  0.53038063  0.76855653    -0.13800
F1257       F  0.55780856  0.59525966  0.71722003    -0.16100
F1258       F  0.46478305  0.56430309  0.76908674    -0.14700
F1259       F  0.43301584  0.58275854  0.73079090    -0.14700
F1260       F  0.45704259  0.68872548  0.75446050    -0.16100
C1261       C  0.50961952  0.74669411  0.88612044     0.14000
C1262       C  0.48750074  0.73077383  0.89342566     0.00900
C1263       C  0.48823849  0.71598290  0.91758794     0.15900
C1264       C  0.51109880  0.71690462  0.93412694     0.25300
C1265       C  0.53318184  0.73307993  0.92688772    -0.41000
C1266       C  0.53218205  0.74795130  0.90270353     0.32400
C1267       C  0.46397074  0.72972568  0.87535377     0.01000
F1268       F  0.46715288  0.70013573  0.92472834    -0.13300
F1269       F  0.55291695  0.76410022  0.89519806    -0.13900
C1270       C  0.46701275  0.72001632  0.84897936     0.15900
C1271       C  0.44594485  0.72217277  0.83052170     0.25300
C1272       C  0.42126735  0.73397398  0.83813884    -0.41000
C1273       C  0.41787514  0.74253008  0.86506133     0.32300
C1274       C  0.43917213  0.74055940  0.88346541     0.14000
F1275       F  0.49063897  0.70874347  0.84101117    -0.13300
F1276       F  0.39436587  0.75371996  0.87337347    -0.13800
F1277       F  0.44972108  0.71248394  0.80520942    -0.16100
F1278       F  0.43600355  0.75030660  0.90886461    -0.14700
F1279       F  0.50921497  0.76131998  0.86294706    -0.14700
F1280       F  0.51212149  0.70114957  0.95650730    -0.16100
C1281       C  0.16175253  0.58298822  0.74679066     0.14000
C1282       C  0.18425604  0.58554391  0.72976773     0.00900
C1283       C  0.18886698  0.56572493  0.71001261     0.15900
C1284       C  0.17287089  0.54257987  0.70889637     0.25300
C1285       C  0.15129570  0.53920680  0.72687883    -0.41000
C1286       C  0.14533632  0.56000215  0.74531901     0.32400
C1287       C  0.20429913  0.60738929  0.73399136     0.01000
F1288       F  0.20915336  0.56868428  0.69193930    -0.13300
F1289       F  0.12467569  0.55735651  0.76301458    -0.13900
C1290       C  0.23132525  0.60072815  0.73919270     0.15900
C1291       C  0.25056622  0.62090918  0.74325501     0.25300
C1292       C  0.24326428  0.64846187  0.74217436    -0.41000
C1293       C  0.21597838  0.65501372  0.73707866     0.32300
C1294       C  0.19677428  0.63469627  0.73316990     0.14000
F1295       F  0.23906382  0.57446301  0.74085289    -0.13300
F1296       F  0.20771224  0.68110392  0.73538602    -0.13800
F1297       F  0.27630143  0.61322833  0.74844883    -0.16100
F1298       F  0.17086671  0.64177223  0.72800708    -0.14700
F1299       F  0.15641450  0.60209734  0.76569028    -0.14700
F1300       F  0.17855360  0.52335065  0.69022514    -0.16100
C1301       C  0.32527214  0.58354241  0.58087853     0.14000
C1302       C  0.33957927  0.58518638  0.60525034     0.00900
C1303       C  0.35652701  0.56372928  0.61284640     0.15900
C1304       C  0.35831319  0.54052509  0.59678322     0.25300
C1305       C  0.34350385  0.53861620  0.57261828    -0.41000
C1306       C  0.32726095  0.56049709  0.56464891     0.32400
C1307       C  0.33538192  0.60844389  0.62358065     0.01000
F1308       F  0.37116122  0.56520317  0.63595263    -0.13300
F1309       F  0.31198132  0.55889981  0.54199046    -0.13900
C1310       C  0.32236974  0.60459056  0.64836508     0.15900
C1311       C  0.31869566  0.62624021  0.66608491     0.25300
C1312       C  0.32840374  0.65222691  0.65955810    -0.41000
C1313       C  0.34014735  0.65629407  0.63404032     0.32300
C1314       C  0.34377025  0.63452204  0.61629917     0.14000
F1315       F  0.31324029  0.57973961  0.65542630    -0.13300
F1316       F  0.34924121  0.68103836  0.62670063    -0.13800
F1317       F  0.30564735  0.62169410  0.68970964    -0.16100
F1318       F  0.35641908  0.63867908  0.59241887    -0.14700
F1319       F  0.30836252  0.60376929  0.57344473    -0.14700
F1320       F  0.37443834  0.51988440  0.60488942    -0.16100
C1321       C  0.30789780  0.87757499  0.57580319     0.14000
C1322       C  0.31948767  0.88908426  0.59889989     0.00900
C1323       C  0.32787976  0.91611179  0.59829418     0.15900
C1324       C  0.32592108  0.93103590  0.57436433     0.25300
C1325       C  0.31559359  0.91898840  0.55067966    -0.41000
C1326       C  0.30609760  0.89224944  0.55192728     0.32400
C1327       C  0.32445532  0.87184003  0.62265117     0.01000
F1328       F  0.33895557  0.92766574  0.62052122    -0.13300
F1329       F  0.29485292  0.88017877  0.53008861    -0.13900
C1330       C  0.34063413  0.84877925  0.61972243     0.15900
C1331       C  0.34247713  0.82991473  0.64044921     0.25300
C1332       C  0.32877672  0.83416489  0.66488015    -0.41000
C1333       C  0.31430109  0.85838503  0.66863826     0.32300
C1334       C  0.31177864  0.87690925  0.64743948     0.14000
F1335       F  0.35417369  0.84423922  0.59637946    -0.13300
F1336       F  0.30139755  0.86344748  0.69223546    -0.13800
F1337       F  0.35755511  0.80735864  0.63650642    -0.16100
F1338       F  0.29587209  0.89899244  0.65063014    -0.14700
F1339       F  0.29854853  0.85182013  0.57633774    -0.14700
F1340       F  0.33510393  0.95684854  0.57420250    -0.16100
C1341       C  0.42984037  0.74091620  0.61167012     0.14000
C1342       C  0.45418653  0.75473180  0.61559487     0.00900
C1343       C  0.46045463  0.76474193  0.64135112     0.15900
C1344       C  0.44233101  0.76159705  0.66273401     0.25300
C1345       C  0.41742064  0.74860634  0.65861452    -0.41000
C1346       C  0.41156851  0.73804411  0.63284403     0.32400
C1347       C  0.47248805  0.75945816  0.59251651     0.01000
F1348       F  0.48374749  0.77841871  0.64555383    -0.13300
F1349       F  0.38820079  0.72468195  0.62807249    -0.13900
C1350       C  0.46325753  0.77366837  0.56982908     0.15900
C1351       C  0.47993221  0.77727109  0.54746115     0.25300
C1352       C  0.50622609  0.76641212  0.54713214    -0.41000
C1353       C  0.51574102  0.75303279  0.57039512     0.32300
C1354       C  0.49897848  0.74954882  0.59280886     0.14000
F1355       F  0.43793818  0.78404594  0.56931886    -0.13300
F1356       F  0.54082944  0.74217687  0.57113152    -0.13800
F1357       F  0.47016627  0.79141188  0.52614123    -0.16100
F1358       F  0.50825330  0.73545302  0.61438915    -0.14700
F1359       F  0.42378446  0.73007283  0.58724538    -0.14700
F1360       F  0.44877695  0.77221356  0.68714231    -0.16100
C1361       C  0.46843738  0.33862020  0.74518025     0.14000
C1362       C  0.46281878  0.36462778  0.73541042     0.00900
C1363       C  0.43624760  0.37164153  0.72895760     0.15900
C1364       C  0.41543223  0.35301706  0.73245788     0.25300
C1365       C  0.42083648  0.32690401  0.74249756    -0.41000
C1366       C  0.44768579  0.32000647  0.74894694     0.32400
C1367       C  0.48468475  0.38463930  0.73296896     0.01000
F1368       F  0.43053565  0.39646876  0.71883782    -0.13300
F1369       F  0.45394042  0.29546737  0.75948689    -0.13900
C1370       C  0.50662619  0.37950344  0.71596711     0.15900
C1371       C  0.52890013  0.39660320  0.71621492     0.25300
C1372       C  0.52955321  0.41927478  0.73334487    -0.41000
C1373       C  0.50680547  0.42543037  0.74905273     0.32300
C1374       C  0.48457090  0.40807231  0.74898780     0.14000
F1375       F  0.50670002  0.35755980  0.69953685    -0.13300
F1376       F  0.50677217  0.44714359  0.76577184    -0.13800
F1377       F  0.55011966  0.39072242  0.69999482    -0.16100
F1378       F  0.46357180  0.41326370  0.76571057    -0.14700
F1379       F  0.49404545  0.33142332  0.75162547    -0.14700
F1380       F  0.39006902  0.36055381  0.72562047    -0.16100
C1381       C  0.50154026  0.28304792  0.89453663     0.14000
C1382       C  0.48175657  0.26292201  0.89708977     0.00900
C1383       C  0.48452175  0.24332784  0.91745855     0.15900
C1384       C  0.50750525  0.24283392  0.93380864     0.25300
C1385       C  0.52821460  0.26168451  0.92974912    -0.41000
C1386       C  0.52473783  0.28222590  0.91052204     0.32400
C1387       C  0.45989009  0.26051675  0.87682527     0.01000
F1388       F  0.46570260  0.22371127  0.92048819    -0.13300
F1389       F  0.54390362  0.30145588  0.90720144    -0.13900
C1390       C  0.46638982  0.25752128  0.84944567     0.15900
C1391       C  0.44631765  0.25261267  0.83032729     0.25300
C1392       C  0.41900737  0.25049081  0.83812777    -0.41000
C1393       C  0.41257208  0.25411156  0.86565173     0.32300
C1394       C  0.43280345  0.25906323  0.88471305     0.14000
F1395       F  0.49246118  0.25826371  0.84126012    -0.13300
F1396       F  0.38673872  0.25268108  0.87438288    -0.13800
F1397       F  0.45398207  0.24954001  0.80422528    -0.16100
F1398       F  0.42591676  0.26234859  0.91099569    -0.14700
F1399       F  0.49858578  0.30321164  0.87621003    -0.14700
F1400       F  0.51025728  0.22292861  0.95243454    -0.16100
C1401       C  0.35673895  0.36531293  0.63840409     0.14000
C1402       C  0.33693799  0.36705593  0.61823299     0.00900
C1403       C  0.31709474  0.34698643  0.61638801     0.15900
C1404       C  0.31610250  0.32633259  0.63561135     0.25300
C1405       C  0.33510361  0.32547724  0.65660879    -0.41000
C1406       C  0.35595860  0.34450324  0.65730900     0.32400
C1407       C  0.33549090  0.39149022  0.60135617     0.01000
F1408       F  0.29791388  0.34823843  0.59690707    -0.13300
F1409       F  0.37561220  0.34280810  0.67624561    -0.13900
C1410       C  0.34072747  0.39059703  0.57358959     0.15900
C1411       C  0.34179880  0.41457420  0.55858658     0.25300
C1412       C  0.33727720  0.43977758  0.57120737    -0.41000
C1413       C  0.33050102  0.44012002  0.59886036     0.32300
C1414       C  0.32985568  0.41627603  0.61370484     0.14000
F1415       F  0.34572501  0.36663092  0.56125326    -0.13300
F1416       F  0.32442760  0.46350462  0.61180551    -0.13800
F1417       F  0.34813193  0.41306410  0.53200820    -0.16100
F1418       F  0.32388577  0.41736046  0.64041368    -0.14700
F1419       F  0.37641665  0.38424342  0.64014529    -0.14700
F1420       F  0.29580410  0.30805311  0.63461121    -0.16100
C1421       C  0.20199371  0.34787944  0.71612162     0.14000
C1422       C  0.20306915  0.37197229  0.73091439     0.00900
C1423       C  0.22315024  0.37545317  0.75054905     0.15900
C1424       C  0.24214539  0.35512344  0.75521113     0.25300
C1425       C  0.24107536  0.33086515  0.74052653    -0.41000
C1426       C  0.22069219  0.32731537  0.72109501     0.32400
C1427       C  0.18383309  0.39402125  0.72561041     0.01000
F1428       F  0.22442705  0.39870361  0.76502478    -0.13300
F1429       F  0.21961190  0.30437926  0.70611731    -0.13900
C1430       C  0.15864986  0.39436837  0.73834812     0.15900
C1431       C  0.14204986  0.41715654  0.73639071     0.25300
C1432       C  0.15087982  0.44024151  0.72234423    -0.41000
C1433       C  0.17555342  0.43911738  0.70836917     0.32300
C1434       C  0.19167909  0.41601461  0.70971400     0.14000
F1435       F  0.15071086  0.37311612  0.75367385    -0.13300
F1436       F  0.18430121  0.46051993  0.69370511    -0.13800
F1437       F  0.11814425  0.41717961  0.74961561    -0.16100
F1438       F  0.21538218  0.41534337  0.69613047    -0.14700
F1439       F  0.18332866  0.34462259  0.69638061    -0.14700
F1440       F  0.26134787  0.35900442  0.77427677    -0.16100
C1441       C  0.32457690  0.06451055  0.59794506     0.14000
C1442       C  0.31059579  0.08901841  0.60004105     0.00900
C1443       C  0.29264819  0.09675671  0.57955272     0.15900
C1444       C  0.29028617  0.08117089  0.55622498     0.25300
C1445       C  0.30616066  0.05789408  0.55298155    -0.41000
C1446       C  0.32256403  0.04909680  0.57443934     0.32400
C1447       C  0.31705795  0.10803887  0.62187416     0.01000
F1448       F  0.27813446  0.11990659  0.58182582    -0.13300
F1449       F  0.33816380  0.02670927  0.57191789    -0.13900
C1450       C  0.32987267  0.13243961  0.61558019     0.15900
C1451       C  0.33496767  0.15142864  0.63566934     0.25300
C1452       C  0.32715807  0.14637783  0.66248798    -0.41000
C1453       C  0.31612550  0.12092065  0.66901702     0.32300
C1454       C  0.31092694  0.10200578  0.64876463     0.14000
F1455       F  0.33739875  0.13787158  0.58982631    -0.13300
F1456       F  0.30941815  0.11457848  0.69477739    -0.13800
F1457       F  0.34751870  0.17474467  0.62877301    -0.16100
F1458       F  0.29907814  0.07819493  0.65525969    -0.14700
F1459       F  0.34154125  0.05647859  0.61789004    -0.14700
F1460       F  0.27285681  0.08903513  0.53661546    -0.16100
C1461       C  0.34412135  0.13563405  0.38650658     0.14000
C1462       C  0.32691283  0.11321104  0.38460300     0.00900
C1463       C  0.31311293  0.10838593  0.36034947     0.15900
C1464       C  0.31549385  0.12637633  0.33872980     0.25300
C1465       C  0.33154509  0.14969142  0.34110788    -0.41000
C1466       C  0.34633535  0.15379261  0.36501301     0.32400
C1467       C  0.32215330  0.09581305  0.40840964     0.01000
F1468       F  0.29630576  0.08690811  0.35805672    -0.13300
F1469       F  0.36301598  0.17534845  0.36755189    -0.13900
C1470       C  0.31170188  0.10709139  0.43215734     0.15900
C1471       C  0.30729232  0.09101636  0.45485410     0.25300
C1472       C  0.31330218  0.06312662  0.45434083    -0.41000
C1473       C  0.32295300  0.05173603  0.43008063     0.32300
C1474       C  0.32739706  0.06797121  0.40742258     0.14000
F1475       F  0.30534298  0.13375380  0.43324023    -0.13300
F1476       F  0.32872938  0.02499641  0.42826390    -0.13800
F1477       F  0.29690772  0.10292863  0.47721504    -0.16100
F1478       F  0.33743273  0.05657139  0.38464776    -0.14700
F1479       F  0.35864806  0.14001027  0.40931438    -0.14700
F1480       F  0.30093902  0.12170159  0.31601631    -0.16100
C1481       C  0.46653856  0.25357450  0.57103614     0.14000
C1482       C  0.47638756  0.24237396  0.59510795     0.00900
C1483       C  0.50315861  0.23321837  0.59621141     0.15900
C1484       C  0.51935845  0.23397972  0.57312501     0.25300
C1485       C  0.50875711  0.24334277  0.54843135    -0.41000
C1486       C  0.48240143  0.25390493  0.54792799     0.32400
C1487       C  0.45792893  0.23906155  0.61827641     0.01000
F1488       F  0.51315551  0.22215673  0.61918725    -0.13300
F1489       F  0.47161380  0.26418919  0.52492878    -0.13900
C1490       C  0.43345176  0.22537873  0.61460400     0.15900
C1491       C  0.41442587  0.22451483  0.63521060     0.25300
C1492       C  0.41967570  0.23675547  0.66029175    -0.41000
C1493       C  0.44481884  0.24935206  0.66442433     0.32300
C1494       C  0.46369080  0.25067583  0.64347298     0.14000
F1495       F  0.42779854  0.21307115  0.59077488    -0.13300
F1496       F  0.45065106  0.26157996  0.68823213    -0.13800
F1497       F  0.39078678  0.21165389  0.63050442    -0.16100
F1498       F  0.48701889  0.26439194  0.64738033    -0.14700
F1499       F  0.44113855  0.26367332  0.56972783    -0.14700
F1500       F  0.54484423  0.22416882  0.57469882    -0.16100
C1501       C  0.46108279  0.22374111  0.35724511     0.14000
C1502       C  0.45581247  0.23798849  0.38114780     0.00900
C1503       C  0.43300467  0.25463420  0.38280639     0.15900
C1504       C  0.41515353  0.25630345  0.36116976     0.25300
C1505       C  0.41966687  0.24106604  0.33765236    -0.41000
C1506       C  0.44311429  0.22526471  0.33556328     0.32400
C1507       C  0.47383747  0.23532347  0.40459405     0.01000
F1508       F  0.42804884  0.26926950  0.40543278    -0.13300
F1509       F  0.44796616  0.21031877  0.31312519    -0.13900
C1510       C  0.50037760  0.24487313  0.40333906     0.15900
C1511       C  0.51692629  0.24390523  0.42616774     0.25300
C1512       C  0.50702886  0.23340045  0.45056245    -0.41000
C1513       C  0.48065689  0.22295613  0.45140121     0.32300
C1514       C  0.46419755  0.22400925  0.42862930     0.14000
F1515       F  0.50981924  0.25618723  0.38029146    -0.13300
F1516       F  0.47075400  0.21168119  0.47430060    -0.13800
F1517       F  0.54205534  0.25451061  0.42476116    -0.16100
F1518       F  0.43874873  0.21411540  0.43005797    -0.14700
F1519       F  0.48311100  0.20760720  0.35533689    -0.14700
F1520       F  0.39344619  0.27290231  0.36314521    -0.16100
C1521       C  0.43972290  0.60967722  0.25678306     0.14000
C1522       C  0.46306249  0.61568086  0.24206513     0.00900
C1523       C  0.46503061  0.64054227  0.22857231     0.15900
C1524       C  0.44423709  0.65940309  0.23029057     0.25300
C1525       C  0.42088639  0.65355863  0.24524952    -0.41000
C1526       C  0.41880522  0.62850304  0.25841654     0.32400
C1527       C  0.48615678  0.59691904  0.24211530     0.01000
F1528       F  0.48715640  0.64652462  0.21366862    -0.13300
F1529       F  0.39705759  0.62270500  0.27383761    -0.13900
C1530       C  0.48362746  0.57036957  0.23241017     0.15900
C1531       C  0.50615090  0.55338800  0.23127815     0.25300
C1532       C  0.53152495  0.56289768  0.23963102    -0.41000
C1533       C  0.53355056  0.58906258  0.25065235     0.32300
C1534       C  0.51112073  0.60585932  0.25179630     0.14000
F1535       F  0.45957624  0.56122639  0.22316845    -0.13300
F1536       F  0.55723814  0.59845776  0.26061079    -0.13800
F1537       F  0.50327141  0.52810030  0.22110446    -0.16100
F1538       F  0.51376444  0.63098187  0.26247377    -0.14700
F1539       F  0.43762186  0.58598576  0.27038006    -0.14700
F1540       F  0.44684394  0.68325440  0.21701760    -0.16100
C1541       C  0.50455875  0.71954732  0.11124523     0.14000
C1542       C  0.48185709  0.73351355  0.10182263     0.00900
C1543       C  0.48201570  0.74454346  0.07573199     0.15900
C1544       C  0.50534283  0.74315451  0.05994596     0.25300
C1545       C  0.52869499  0.73051897  0.07009480    -0.41000
C1546       C  0.52769531  0.71792470  0.09551770     0.32400
C1547       C  0.45875804  0.73751938  0.12004624     0.01000
F1548       F  0.45999667  0.75760714  0.06603311    -0.13300
F1549       F  0.54915710  0.70396571  0.10523657    -0.13900
C1550       C  0.46244883  0.75162110  0.14433051     0.15900
C1551       C  0.44156342  0.75362492  0.16293695     0.25300
C1552       C  0.41664520  0.74116244  0.15782290    -0.41000
C1553       C  0.41270822  0.72763667  0.13307959     0.32300
C1554       C  0.43361935  0.72601800  0.11425214     0.14000
F1555       F  0.48651744  0.76320548  0.15018137    -0.13300
F1556       F  0.38916994  0.71481770  0.12764999    -0.13800
F1557       F  0.44579264  0.76776315  0.18603193    -0.16100
F1558       F  0.42976478  0.71214954  0.09094308    -0.14700
F1559       F  0.50435370  0.70764700  0.13591840    -0.14700
F1560       F  0.50543130  0.75527658  0.03538881    -0.16100
C1561       C  0.46552974  0.77310678  0.42493094     0.14000
C1562       C  0.47670704  0.76265339  0.40113954     0.00900
C1563       C  0.50459480  0.75762081  0.40029137     0.15900
C1564       C  0.52046510  0.76074877  0.42360566     0.25300
C1565       C  0.50870652  0.76913086  0.44817577    -0.41000
C1566       C  0.48118274  0.77633256  0.44803803     0.32400
C1567       C  0.45852328  0.75576581  0.37824100     0.01000
F1568       F  0.51628150  0.74840281  0.37733012    -0.13300
F1569       F  0.46889629  0.78604284  0.47045015    -0.13900
C1570       C  0.46271056  0.76612813  0.35218336     0.15900
C1571       C  0.44391218  0.76120871  0.33161545     0.25300
C1572       C  0.41993986  0.74692634  0.33706578    -0.41000
C1573       C  0.41602228  0.73638826  0.36308075     0.32300
C1574       C  0.43548553  0.73996644  0.38308125     0.14000
F1575       F  0.48426140  0.78209743  0.34692485    -0.13300
F1576       F  0.39326546  0.72258772  0.36930106    -0.13800
F1577       F  0.44856357  0.77166093  0.30676328    -0.16100
F1578       F  0.43160210  0.72821643  0.40750626    -0.14700
F1579       F  0.43901066  0.77973932  0.42601255    -0.14700
F1580       F  0.54701236  0.75438887  0.42227347    -0.16100
C1581       C  0.32939603  0.91196721  0.40523058     0.14000
C1582       C  0.32078886  0.88497682  0.40557716     0.00900
C1583       C  0.30776922  0.87486618  0.42850276     0.15900
C1584       C  0.30428513  0.89113151  0.45120110     0.25300
C1585       C  0.31416566  0.91780749  0.45159816    -0.41000
C1586       C  0.32598724  0.92835684  0.42802082     0.32400
C1587       C  0.32486183  0.86716227  0.38204969     0.01000
F1588       F  0.29830472  0.84914701  0.42882821    -0.13300
F1589       F  0.33516889  0.95414836  0.42728574    -0.13900
C1590       C  0.34093048  0.84392780  0.38444082     0.15900
C1591       C  0.34245709  0.82543236  0.36323544     0.25300
C1592       C  0.32766504  0.82972236  0.33937902    -0.41000
C1593       C  0.31223306  0.85344319  0.33671579     0.32300
C1594       C  0.31103427  0.87212070  0.35785396     0.14000
F1595       F  0.35491407  0.83903083  0.40748295    -0.13300
F1596       F  0.29716120  0.85785536  0.31427844    -0.13800
F1597       F  0.35842290  0.80331045  0.36602738    -0.16100
F1598       F  0.29535171  0.89443783  0.35522459    -0.14700
F1599       F  0.34190366  0.92213881  0.38313967    -0.14700
F1600       F  0.29094556  0.88076817  0.47270093    -0.16100
C1601       C  0.19289044  0.56440369  0.28762827     0.14000
C1602       C  0.18383837  0.58612737  0.27191440     0.00900
C1603       C  0.15807705  0.58513807  0.26032659     0.15900
C1604       C  0.14217192  0.56195031  0.26311894     0.25300
C1605       C  0.15186350  0.53941323  0.27764882    -0.41000
C1606       C  0.17710023  0.54130231  0.29053864     0.32400
C1607       C  0.20251948  0.60843108  0.26564846     0.01000
F1608       F  0.14900074  0.60597628  0.24500310    -0.13300
F1609       F  0.18683192  0.52059175  0.30561394    -0.13900
C1610       C  0.22552484  0.60314741  0.25010932     0.15900
C1611       C  0.24447868  0.62341719  0.24539158     0.25300
C1612       C  0.24072552  0.64947133  0.25614509    -0.41000
C1613       C  0.21730724  0.65481632  0.27136749     0.32300
C1614       C  0.19833238  0.63445231  0.27598970     0.14000
F1615       F  0.22965303  0.57814624  0.23962122    -0.13300
F1616       F  0.21335994  0.67938737  0.28288474    -0.13800
F1617       F  0.26642509  0.61752091  0.23019663    -0.16100
F1618       F  0.17641686  0.63984189  0.29141900    -0.14700
F1619       F  0.21751713  0.56530106  0.29951162    -0.14700
F1620       F  0.11810155  0.56100803  0.25016309    -0.16100
C1621       C  0.15870557  0.39335347  0.26427907     0.14000
C1622       C  0.18473697  0.39282842  0.27514730     0.00900
C1623       C  0.19455316  0.41548008  0.28895622     0.15900
C1624       C  0.17899250  0.43893340  0.29083847     0.25300
C1625       C  0.15323331  0.44007465  0.27888892    -0.41000
C1626       C  0.14308742  0.41678919  0.26599027     0.32400
C1627       C  0.20276232  0.36983084  0.26967821     0.01000
F1628       F  0.21950737  0.41498521  0.30015553    -0.13300
F1629       F  0.11868677  0.41705771  0.25363300    -0.13900
C1630       C  0.22341661  0.37279956  0.25067805     0.15900
C1631       C  0.24129133  0.35164290  0.24575613     0.25300
C1632       C  0.23882252  0.32708249  0.25979070    -0.41000
C1633       C  0.21786423  0.32399742  0.27865345     0.32300
C1634       C  0.19987018  0.34527577  0.28348270     0.14000
F1635       F  0.22629960  0.39634136  0.23694686    -0.13300
F1636       F  0.21565126  0.30098160  0.29336333    -0.13800
F1637       F  0.26105920  0.35517111  0.22720334    -0.16100
F1638       F  0.18019413  0.34229166  0.30221186    -0.14700
F1639       F  0.14890897  0.37156310  0.25087771    -0.14700
F1640       F  0.18934791  0.46055933  0.30407886    -0.16100
C1641       C  0.32438350  0.63502371  0.38375141     0.14000
C1642       C  0.33253191  0.60876224  0.37711210     0.00900
C1643       C  0.34254639  0.60340000  0.35120955     0.15900
C1644       C  0.34337479  0.62379422  0.33178631     0.25300
C1645       C  0.33438930  0.65010379  0.33803283    -0.41000
C1646       C  0.32542281  0.65557542  0.36448111     0.32400
C1647       C  0.32991401  0.58659865  0.39680370     0.01000
F1648       F  0.35147630  0.57828633  0.34473256    -0.13300
F1649       F  0.31660077  0.68055089  0.37153622    -0.13900
C1650       C  0.31239755  0.56507348  0.39140637     0.15900
C1651       C  0.31192353  0.54257659  0.40833981     0.25300
C1652       C  0.32919597  0.54111416  0.43082741    -0.41000
C1653       C  0.34546939  0.56348400  0.43718548     0.32300
C1654       C  0.34578189  0.58611663  0.42024895     0.14000
F1655       F  0.29614875  0.56565283  0.36936050    -0.13300
F1656       F  0.36239247  0.56272889  0.45868480    -0.13800
F1657       F  0.29484875  0.52199364  0.40250371    -0.16100
F1658       F  0.36265556  0.60691467  0.42588139    -0.14700
F1659       F  0.31447954  0.64054393  0.40864855    -0.14700
F1660       F  0.35293593  0.61765222  0.30690369    -0.16100
C1661       C  0.35266915  0.39906051  0.41523258     0.14000
C1662       C  0.33325804  0.39659492  0.39471873     0.00900
C1663       C  0.31374040  0.41688363  0.39163419     0.15900
C1664       C  0.31416605  0.43977500  0.40807394     0.25300
C1665       C  0.33382980  0.44260589  0.42830484    -0.41000
C1666       C  0.35285813  0.42185761  0.43206208     0.32400
C1667       C  0.33387565  0.37364716  0.37556050     0.01000
F1668       F  0.29421531  0.41447702  0.37260029    -0.13300
F1669       F  0.37236312  0.42425032  0.45111355    -0.13900
C1670       C  0.32833129  0.34724307  0.38415917     0.15900
C1671       C  0.32745083  0.32592671  0.36552872     0.25300
C1672       C  0.33204784  0.33069685  0.33780974    -0.41000
C1673       C  0.33817566  0.35732649  0.32952764     0.32300
C1674       C  0.33904551  0.37843575  0.34819406     0.14000
F1675       F  0.32298336  0.34225567  0.41052969    -0.13300
F1676       F  0.34360814  0.36316439  0.30333588    -0.13800
F1677       F  0.32150259  0.30080304  0.37466962    -0.16100
F1678       F  0.34509191  0.40372414  0.33952076    -0.14700
F1679       F  0.37197753  0.37987524  0.41828745    -0.14700
F1680       F  0.29513723  0.45913571  0.40436503    -0.16100
C1681       C  0.17619318  0.22943276  0.42391009     0.14000
C1682       C  0.17569051  0.24108739  0.39814515     0.00900
C1683       C  0.15227889  0.25423378  0.38921917     0.15900
C1684       C  0.12917722  0.25439670  0.40520564     0.25300
C1685       C  0.12891156  0.24091077  0.43028687    -0.41000
C1686       C  0.15295463  0.22911606  0.43979774     0.32400
C1687       C  0.19880483  0.23795104  0.37971679     0.01000
F1688       F  0.15168074  0.26652770  0.36473171    -0.13300
F1689       F  0.15368053  0.21585660  0.46373611    -0.13900
C1690       C  0.19555499  0.22354057  0.35557756     0.15900
C1691       C  0.21649465  0.22213732  0.33693370     0.25300
C1692       C  0.24124318  0.23500941  0.34214283    -0.41000
C1693       C  0.24506897  0.24782100  0.36725389     0.32300
C1694       C  0.22390592  0.24940990  0.38581908     0.14000
F1695       F  0.17198073  0.21080521  0.35006757    -0.13300
F1696       F  0.26884634  0.25981008  0.37342263    -0.13800
F1697       F  0.21247657  0.20814067  0.31375101    -0.16100
F1698       F  0.22760541  0.26293396  0.40934573    -0.14700
F1699       F  0.19880833  0.21705405  0.43307934    -0.14700
F1700       F  0.10698902  0.26744219  0.39585145    -0.16100
C1701       C  0.00536424  0.25530677  0.39151975     0.14000
C1702       C  0.98424651  0.23721048  0.39624957     0.00900
C1703       C  0.98603882  0.21875458  0.41765417     0.15900
C1704       C  0.00917173  0.21798406  0.43379146     0.25300
C1705       C  0.03060380  0.23585014  0.42871704    -0.41000
C1706       C  0.02825316  0.25480671  0.40772816     0.32400
C1707       C  0.96150447  0.23638370  0.37727410     0.01000
F1708       F  0.96599097  0.20068095  0.42203009    -0.13300
F1709       F  0.04816772  0.27288765  0.40282776    -0.13900
C1710       C  0.96583413  0.22707756  0.35097627     0.15900
C1711       C  0.94510417  0.22778624  0.33203534     0.25300
C1712       C  0.91946877  0.23790933  0.33909519    -0.41000
C1713       C  0.91519441  0.24703136  0.36572655     0.32300
C1714       C  0.93611244  0.24625326  0.38465025     0.14000
F1715       F  0.99036205  0.21743289  0.34362407    -0.13300
F1716       F  0.89111644  0.25757712  0.37326602    -0.13800
F1717       F  0.95024596  0.21835698  0.30683893    -0.16100
F1718       F  0.93188651  0.25597536  0.40989824    -0.14700
F1719       F  0.00399457  0.27311925  0.37074367    -0.14700
F1720       F  0.01121801  0.19886068  0.45331354    -0.16100
C1721       C  0.21379348  0.11297741  0.22631954     0.14000
C1722       C  0.19698614  0.10993385  0.24886918     0.00900
C1723       C  0.20206640  0.12534062  0.27213549     0.15900
C1724       C  0.22327458  0.14389332  0.27266156     0.25300
C1725       C  0.23993103  0.14716873  0.25007303    -0.41000
C1726       C  0.23513961  0.13148275  0.22693578     0.32400
C1727       C  0.17266221  0.09270393  0.24746847     0.01000
F1728       F  0.18617075  0.12265630  0.29422024    -0.13300
F1729       F  0.25008261  0.13526035  0.20442815    -0.13900
C1730       C  0.17450794  0.06440738  0.24661151     0.15900
C1731       C  0.15110451  0.04846739  0.24671524     0.25300
C1732       C  0.12537261  0.06067565  0.24723545    -0.41000
C1733       C  0.12392561  0.08923614  0.24717293     0.32300
C1734       C  0.14723666  0.10489946  0.24742796     0.14000
F1735       F  0.19900062  0.05223712  0.24615939    -0.13300
F1736       F  0.09994309  0.10238817  0.24650732    -0.13800
F1737       F  0.15377075  0.02118434  0.24672139    -0.16100
F1738       F  0.14497170  0.13223770  0.24727793    -0.14700
F1739       F  0.20868403  0.09902263  0.20330785    -0.14700
F1740       F  0.22749205  0.15883915  0.29519300    -0.16100
C1741       C  0.00536037  0.10126283  0.26815384     0.14000
C1742       C  0.98152983  0.09270864  0.25565661     0.00900
C1743       C  0.98001637  0.06648237  0.24502259     0.15900
C1744       C  0.00266427  0.04960714  0.24527542     0.25300
C1745       C  0.02724046  0.05884982  0.25610692    -0.41000
C1746       C  0.02791199  0.08446640  0.26861797     0.32400
C1747       C  0.95878837  0.11171861  0.25274816     0.01000
F1748       F  0.95698019  0.05773603  0.23316398    -0.13300
F1749       F  0.05050276  0.09351743  0.28112293    -0.13900
C1750       C  0.96213428  0.13560519  0.23786108     0.15900
C1751       C  0.94133483  0.15450185  0.23625978     0.25300
C1752       C  0.91686312  0.14992870  0.24971054    -0.41000
C1753       C  0.91301810  0.12527275  0.26339272     0.32300
C1754       C  0.93394090  0.10641820  0.26505721     0.14000
F1755       F  0.98561087  0.14058095  0.22479826    -0.13300
F1756       F  0.88939341  0.11978262  0.27598238    -0.13800
F1757       F  0.94498030  0.17708927  0.22117910    -0.16100
F1758       F  0.93029085  0.08342339  0.27949373    -0.14700
F1759       F  0.00689359  0.12614747  0.27959028    -0.14700
F1760       F  0.00077476  0.02482557  0.23374242    -0.16100
C1761       C  0.93386902  0.74355528  0.38659630     0.14000
C1762       C  0.95946283  0.73347922  0.38030428     0.00900
C1763       C  0.96408008  0.72211947  0.35478892     0.15900
C1764       C  0.94390231  0.72240627  0.33517131     0.25300
C1765       C  0.91858609  0.73399897  0.34077583    -0.41000
C1766       C  0.91354520  0.74381034  0.36704260     0.32400
C1767       C  0.98229863  0.73788227  0.39882790     0.01000
F1768       F  0.98843753  0.71122913  0.34872724    -0.13300
F1769       F  0.88932508  0.75464769  0.37361341    -0.13900
C1770       C  0.98374443  0.72510844  0.42409992     0.15900
C1771       C  0.00645018  0.72871785  0.44055222     0.25300
C1772       C  0.02790816  0.74502713  0.43172356    -0.41000
C1773       C  0.02562324  0.75880530  0.40705680     0.32300
C1774       C  0.00305343  0.75525432  0.39080030     0.14000
F1775       F  0.96369687  0.70844742  0.43233484    -0.13300
F1776       F  0.04534419  0.77577411  0.39863421    -0.13800
F1777       F  0.00802929  0.71526325  0.46436129    -0.16100
F1778       F  0.00143832  0.76876453  0.36702091    -0.14700
F1779       F  0.92897238  0.75437010  0.41127232    -0.14700
F1780       F  0.94921514  0.71125579  0.31072659    -0.16100
C1781       C  0.19450867  0.76017733  0.35185052     0.14000
C1782       C  0.19608354  0.74543869  0.37606698     0.00900
C1783       C  0.21957900  0.73047361  0.38152075     0.15900
C1784       C  0.24084137  0.72989919  0.36291506     0.25300
C1785       C  0.23878438  0.74382967  0.33825424    -0.41000
C1786       C  0.21536349  0.75903688  0.33299770     0.32400
C1787       C  0.17243381  0.74441607  0.39449692     0.01000
F1788       F  0.22148673  0.71543098  0.40431886    -0.13300
F1789       F  0.21265527  0.77305309  0.30961520    -0.13900
C1790       C  0.14715447  0.73713209  0.38417407     0.15900
C1791       C  0.12436801  0.73740345  0.40055859     0.25300
C1792       C  0.12618572  0.74435578  0.42817258    -0.41000
C1793       C  0.15184364  0.75035690  0.43887860     0.32300
C1794       C  0.17464605  0.75078619  0.42209329     0.14000
F1795       F  0.14447959  0.72939725  0.35802183    -0.13300
F1796       F  0.15492924  0.75632416  0.46541973    -0.13800
F1797       F  0.10052793  0.73042711  0.38910835    -0.16100
F1798       F  0.19875058  0.75818833  0.43266112    -0.14700
F1799       F  0.17260795  0.77569696  0.34636564    -0.14700
F1800       F  0.26287090  0.71462947  0.36845364    -0.16100
C1801       C  0.98177508  0.90743549  0.23563702     0.14000
C1802       C  0.98362496  0.88199444  0.22323225     0.00900
C1803       C  0.00710506  0.87512444  0.20919161     0.15900
C1804       C  0.02913589  0.89260596  0.20908582     0.25300
C1805       C  0.02821364  0.91740346  0.22318066    -0.41000
C1806       C  0.00385343  0.92507093  0.23558131     0.32400
C1807       C  0.96222718  0.86162217  0.22713296     0.01000
F1808       F  0.00894472  0.85104789  0.19617929    -0.13300
F1809       F  0.00185111  0.94880170  0.24912351    -0.13900
C1810       C  0.93616866  0.86582017  0.21700762     0.15900
C1811       C  0.91589307  0.84682987  0.22182085     0.25300
C1812       C  0.92134046  0.82340371  0.23708236    -0.41000
C1813       C  0.94770048  0.81898186  0.24658253     0.32300
C1814       C  0.96787806  0.83796213  0.24172372     0.14000
F1815       F  0.93048485  0.88812361  0.20212966    -0.13300
F1816       F  0.95389546  0.79657085  0.26111912    -0.13800
F1817       F  0.89116057  0.85100127  0.21086957    -0.16100
F1818       F  0.99289049  0.83357088  0.25190129    -0.14700
F1819       F  0.95913448  0.91447978  0.24924270    -0.14700
F1820       F  0.05159053  0.88487854  0.19556385    -0.16100
C1821       C  0.22258989  0.87462220  0.23293062     0.14000
C1822       C  0.19590469  0.86730908  0.23864778     0.00900
C1823       C  0.19037621  0.84091037  0.24730231     0.15900
C1824       C  0.21085631  0.82179061  0.24926380     0.25300
C1825       C  0.23773454  0.82883619  0.24350585    -0.41000
C1826       C  0.24333649  0.85555295  0.23521487     0.32400
C1827       C  0.17327268  0.88629801  0.23427460     0.01000
F1828       F  0.16489162  0.83357450  0.25391122    -0.13300
F1829       F  0.26867914  0.86306513  0.22830317    -0.13900
C1830       C  0.15177174  0.87843386  0.21766471     0.15900
C1831       C  0.12853607  0.89409701  0.21608149     0.25300
C1832       C  0.12649422  0.91852172  0.23050596    -0.41000
C1833       C  0.14871203  0.92722168  0.24596701     0.32300
C1834       C  0.17185019  0.91110139  0.24798862     0.14000
F1835       F  0.15304965  0.85507186  0.20335458    -0.13300
F1836       F  0.14753356  0.95051058  0.26037413    -0.13800
F1837       F  0.10793224  0.88503974  0.20054989    -0.16100
F1838       F  0.19221331  0.91902862  0.26445628    -0.14700
F1839       F  0.22846947  0.89996101  0.22432687    -0.14700
F1840       F  0.20410281  0.79632900  0.25677213    -0.16100
C1841       C  0.15231574  0.72136136  0.61091606     0.14000
C1842       C  0.17507572  0.73674125  0.60438952     0.00900
C1843       C  0.17510782  0.75231385  0.58070475     0.15900
C1844       C  0.15204257  0.75358424  0.56449248     0.25300
C1845       C  0.12864643  0.73950639  0.57204700    -0.41000
C1846       C  0.12926058  0.72286036  0.59501660     0.32400
C1847       C  0.19756203  0.73841467  0.62374216     0.01000
F1848       F  0.19690243  0.76745424  0.57415120    -0.13300
F1849       F  0.10741207  0.70810922  0.60223580    -0.13900
C1850       C  0.22373015  0.73071073  0.61641341     0.15900
C1851       C  0.24462743  0.73190439  0.63530847     0.25300
C1852       C  0.23959809  0.74097660  0.66182378    -0.41000
C1853       C  0.21336134  0.74917574  0.66879491     0.32300
C1854       C  0.19260051  0.74779421  0.64997644     0.14000
F1855       F  0.22886405  0.72131593  0.59120950    -0.13300
F1856       F  0.20772625  0.75891756  0.69376199    -0.13800
F1857       F  0.26950964  0.72335988  0.62784179    -0.16100
F1858       F  0.16753668  0.75591002  0.65732558    -0.14700
F1859       F  0.15221939  0.70537474  0.63317044    -0.14700
F1860       F  0.15209107  0.76980083  0.54241964    -0.16100
C1861       C  0.98147385  0.75208757  0.57771232     0.14000
C1862       C  0.98225378  0.74547185  0.60522320     0.00900
C1863       C  0.00691175  0.73839861  0.61704244     0.15900
C1864       C  0.03055658  0.73832594  0.60184721     0.25300
C1865       C  0.03012123  0.74497005  0.57408788    -0.41000
C1866       C  0.00511782  0.75172172  0.56221442     0.32400
C1867       C  0.95783484  0.74707550  0.62229995     0.01000
F1868       F  0.00809974  0.73162210  0.64356493    -0.13300
F1869       F  0.00351393  0.75875930  0.53581025    -0.13900
C1870       C  0.93675093  0.72837573  0.61938035     0.15900
C1871       C  0.91531814  0.72817584  0.63779454     0.25300
C1872       C  0.91491443  0.74645732  0.65951927    -0.41000
C1873       C  0.93552297  0.76576735  0.66175637     0.32300
C1874       C  0.95666900  0.76617029  0.64320997     0.14000
F1875       F  0.93761795  0.70949036  0.59955234    -0.13300
F1876       F  0.93526122  0.78417386  0.68206553    -0.13800
F1877       F  0.89584466  0.70911412  0.63536905    -0.16100
F1878       F  0.97640299  0.78492025  0.64592557    -0.14700
F1879       F  0.95794763  0.75981021  0.56608000    -0.14700
F1880       F  0.05383683  0.73177779  0.61464378    -0.16100
C1881       C  0.16938211  0.90639857  0.75136380     0.14000
C1882       C  0.17023124  0.88357137  0.76818373     0.00900
C1883       C  0.14908191  0.87908228  0.78639603     0.15900
C1884       C  0.12725406  0.89690921  0.78748790     0.25300
C1885       C  0.12583865  0.91924415  0.76992511    -0.41000
C1886       C  0.14732411  0.92402305  0.75209482     0.32400
C1887       C  0.19261985  0.86388436  0.76581525     0.01000
F1888       F  0.14940530  0.85721430  0.80290857    -0.13300
F1889       F  0.14625956  0.94472435  0.73417834    -0.13900
C1890       C  0.21917857  0.87163075  0.77151941     0.15900
C1891       C  0.24044972  0.85329660  0.76834178     0.25300
C1892       C  0.23560579  0.82668282  0.75932816    -0.41000
C1893       C  0.20872238  0.81905794  0.75372046     0.32300
C1894       C  0.18755817  0.83745131  0.75700585     0.14000
F1895       F  0.22446743  0.89695633  0.78055921    -0.13300
F1896       F  0.20273896  0.79392607  0.74456507    -0.13800
F1897       F  0.26571359  0.86162794  0.77453008    -0.16100
F1898       F  0.16206754  0.82961224  0.75094800    -0.14700
F1899       F  0.18930380  0.91081306  0.73319324    -0.14700
F1900       F  0.10729726  0.89214067  0.80556169    -0.16100
C1901       C  0.00511435  0.87899226  0.75357186     0.14000
C1902       C  0.98181655  0.88737549  0.76703542     0.00900
C1903       C  0.98146108  0.91244301  0.78035446     0.15900
C1904       C  0.00451986  0.92884342  0.78034193     0.25300
C1905       C  0.02813721  0.91992510  0.76742071    -0.41000
C1906       C  0.02807950  0.89497730  0.75389918     0.32400
C1907       C  0.95826857  0.86935800  0.76683110     0.01000
F1908       F  0.95908195  0.92064367  0.79375618    -0.13300
F1909       F  0.05023553  0.88624874  0.74044555    -0.13900
C1910       C  0.95928655  0.84492024  0.78111594     0.15900
C1911       C  0.93926885  0.82550541  0.77744703     0.25300
C1912       C  0.91788846  0.83028531  0.75940829    -0.41000
C1913       C  0.91637779  0.85520849  0.74587820     0.32300
C1914       C  0.93657350  0.87455757  0.74944904     0.14000
F1915       F  0.98009841  0.83965434  0.79811734    -0.13300
F1916       F  0.89603232  0.86030979  0.72829176    -0.13800
F1917       F  0.94064935  0.80212903  0.79172003    -0.16100
F1918       F  0.93570847  0.89779078  0.73495038    -0.14700
F1919       F  0.00551118  0.85524071  0.73988166    -0.14700
F1920       F  0.00406928  0.95283235  0.79360048    -0.16100
C1921       C  0.14718322  0.23228451  0.61545191     0.14000
C1922       C  0.17263610  0.22637396  0.60466515     0.00900
C1923       C  0.17469399  0.21929467  0.57728965     0.15900
C1924       C  0.15154168  0.21725553  0.56122299     0.25300
C1925       C  0.12584923  0.22192441  0.57238766    -0.41000
C1926       C  0.12406795  0.22993977  0.59962784     0.32400
C1927       C  0.19668067  0.22709287  0.62243246     0.01000
F1928       F  0.19905770  0.21367948  0.56626045    -0.13300
F1929       F  0.10000152  0.23624436  0.61097008    -0.13900
C1930       C  0.19702303  0.21173720  0.64627120     0.15900
C1931       C  0.21812531  0.21437012  0.66468520     0.25300
C1932       C  0.23986937  0.23166537  0.65919002    -0.41000
C1933       C  0.24042324  0.24574261  0.63455900     0.32300
C1934       C  0.21873181  0.24386862  0.61653115     0.14000
F1935       F  0.17678197  0.19417907  0.65175918    -0.13300
F1936       F  0.26134879  0.26222022  0.62849289    -0.13800
F1937       F  0.21743589  0.19974024  0.68784477    -0.16100
F1938       F  0.21875140  0.25927224  0.59388863    -0.14700
F1939       F  0.14472890  0.24076044  0.64138739    -0.14700
F1940       F  0.15432153  0.21016212  0.53492371    -0.16100
C1941       C  0.99379230  0.24652120  0.58745931     0.14000
C1942       C  0.98248376  0.22430371  0.60075552     0.00900
C1943       C  0.99362626  0.19845153  0.59705529     0.15900
C1944       C  0.01642113  0.19503922  0.58078174     0.25300
C1945       C  0.02796565  0.21744780  0.56791112    -0.41000
C1946       C  0.01627749  0.24306215  0.57097231     0.32400
C1947       C  0.96059062  0.22852201  0.62031702     0.01000
F1948       F  0.98285243  0.17676704  0.60983282    -0.13300
F1949       F  0.02760237  0.26496272  0.55907407    -0.13900
C1950       C  0.93373722  0.23034840  0.61183234     0.15900
C1951       C  0.91306783  0.23382832  0.63074754     0.25300
C1952       C  0.91903441  0.23533956  0.65861080    -0.41000
C1953       C  0.94637291  0.23436551  0.66668682     0.32300
C1954       C  0.96680002  0.23117376  0.64769875     0.14000
F1955       F  0.92758361  0.22863209  0.58520393    -0.13300
F1956       F  0.95365663  0.23620812  0.69302900    -0.13800
F1957       F  0.88734689  0.23566901  0.62165491    -0.16100
F1958       F  0.99283458  0.23075020  0.65607724    -0.14700
F1959       F  0.98378306  0.27172056  0.59146048    -0.14700
F1960       F  0.02748796  0.17010977  0.57800427    -0.16100
C1961       C  0.14774553  0.10139571  0.72084691     0.14000
C1962       C  0.16909641  0.09644016  0.73880957     0.00900
C1963       C  0.16849952  0.07292434  0.75473481     0.15900
C1964       C  0.14692148  0.05481545  0.75288009     0.25300
C1965       C  0.12505474  0.06026549  0.73558695    -0.41000
C1966       C  0.12603862  0.08353549  0.71920359     0.32400
C1967       C  0.19191378  0.11578287  0.74095194     0.01000
F1968       F  0.18830759  0.06805163  0.77298798    -0.13300
F1969       F  0.10596858  0.08909068  0.70142672    -0.13900
C1970       C  0.18715824  0.14319574  0.74644900     0.15900
C1971       C  0.20856467  0.16139303  0.74851104     0.25300
C1972       C  0.23552173  0.15268286  0.74515250    -0.41000
C1973       C  0.24013875  0.12510851  0.73949745     0.32300
C1974       C  0.21857612  0.10696043  0.73738824     0.14000
F1975       F  0.16168293  0.15240764  0.75027919    -0.13300
F1976       F  0.26543627  0.11561574  0.73542278    -0.13800
F1977       F  0.20262629  0.18758429  0.75407830    -0.16100
F1978       F  0.22370531  0.08076059  0.73113585    -0.14700
F1979       F  0.14787265  0.12359572  0.70477673    -0.14700
F1980       F  0.14697335  0.03261514  0.76893648    -0.16100
C1981       C  0.93314131  0.10432716  0.72709006     0.14000
C1982       C  0.96010772  0.11012045  0.73302114     0.00900
C1983       C  0.96698887  0.13573656  0.74297290     0.15900
C1984       C  0.94722554  0.15537988  0.74697833     0.25300
C1985       C  0.91999203  0.14967921  0.74135260    -0.41000
C1986       C  0.91323971  0.12393596  0.73107003     0.32400
C1987       C  0.98137308  0.08962952  0.72921781     0.01000
F1988       F  0.99294889  0.14156738  0.74928559    -0.13300
F1989       F  0.88751531  0.11790233  0.72404369    -0.13900
C1990       C  0.00280908  0.09485713  0.71160950     0.15900
C1991       C  0.02550684  0.07822834  0.71164187     0.25300
C1992       C  0.02694184  0.05578268  0.72903159    -0.41000
C1993       C  0.00430068  0.04915183  0.74478850     0.32300
C1994       C  0.98182454  0.06618880  0.74512910     0.14000
F1995       F  0.00214605  0.11675149  0.69513504    -0.13300
F1996       F  0.00460957  0.02735939  0.76139912    -0.13800
F1997       F  0.04638402  0.08456731  0.69519226    -0.16100
F1998       F  0.96134832  0.06082951  0.76241519    -0.14700
F1999       F  0.92617627  0.07985307  0.71691471    -0.14700
F2000       F  0.95485782  0.17984801  0.75667298    -0.16100
C2001       C  0.50394535  0.08604282  0.24508333     0.14000
C2002       C  0.47571025  0.08403914  0.24417095     0.00900
C2003       C  0.46396808  0.05868467  0.23961123     0.15900
C2004       C  0.47988841  0.03562392  0.23711738     0.25300
C2005       C  0.50824527  0.03725517  0.23866292    -0.41000
C2006       C  0.52009341  0.06292961  0.24203706     0.32400
C2007       C  0.45804931  0.10803368  0.24767049     0.01000
F2008       F  0.43683402  0.05622741  0.23724027    -0.13300
F2009       F  0.54724426  0.06570346  0.24309596    -0.13900
C2010       C  0.46059830  0.13070107  0.23075774     0.15900
C2011       C  0.44161199  0.15162660  0.23184246     0.25300
C2012       C  0.41959422  0.15001505  0.24958874    -0.41000
C2013       C  0.41748913  0.12773779  0.26698748     0.32300
C2014       C  0.43679500  0.10723523  0.26639971     0.14000
F2015       F  0.48062521  0.13194601  0.21220836    -0.13300
F2016       F  0.39664627  0.12577542  0.28457290    -0.13800
F2017       F  0.44385060  0.17265152  0.21441312    -0.16100
F2018       F  0.43448013  0.08626897  0.28389043    -0.14700
F2019       F  0.51589265  0.11024644  0.24970537    -0.14700
F2020       F  0.46724606  0.01171066  0.23281434    -0.16100
C2021       C  0.46563401  0.84442050  0.25323865     0.14000
C2022       C  0.45850871  0.87166744  0.25037211     0.00900
C2023       C  0.43124472  0.87870778  0.24808216     0.15900
C2024       C  0.41127864  0.85890655  0.24852086     0.25300
C2025       C  0.41815038  0.83135613  0.25100595    -0.41000
C2026       C  0.44571039  0.82443712  0.25370313     0.32400
C2027       C  0.47913594  0.89317523  0.24994280     0.01000
F2028       F  0.42396063  0.90494963  0.24484804    -0.13300
F2029       F  0.45358689  0.79837926  0.25695282    -0.13900
C2030       C  0.49743328  0.89521129  0.22842565     0.15900
C2031       C  0.51420723  0.91783395  0.22619189     0.25300
C2032       C  0.51248627  0.93884970  0.24516763    -0.41000
C2033       C  0.49484970  0.93629896  0.26715263     0.32300
C2034       C  0.47857715  0.91348887  0.26968972     0.14000
F2035       F  0.49775559  0.87623262  0.20866575    -0.13300
F2036       F  0.49293675  0.95622727  0.28587377    -0.13800
F2037       F  0.53058715  0.92018779  0.20442654    -0.16100
F2038       F  0.46146962  0.91162656  0.29094082    -0.14700
F2039       F  0.49187538  0.83718440  0.25593197    -0.14700
F2040       F  0.38525333  0.86691998  0.24607105    -0.16100
C2041       C  0.31424451  0.10618195  0.14246791     0.14000
C2042       C  0.33249345  0.10806109  0.12099357     0.00900
C2043       C  0.34977661  0.13033303  0.11921121     0.15900
C2044       C  0.34901689  0.15045097  0.13898123     0.25300
C2045       C  0.33101869  0.14835328  0.16076744    -0.41000
C2046       C  0.31380562  0.12598329  0.16242054     0.32400
C2047       C  0.33642001  0.08469329  0.10322418     0.01000
F2048       F  0.36832868  0.13176034  0.09917862    -0.13300
F2049       F  0.29675040  0.12316597  0.18351704    -0.13900
C2050       C  0.32982692  0.08565527  0.07571713     0.15900
C2051       C  0.33331039  0.06270702  0.05956982     0.25300
C2052       C  0.34331650  0.03857098  0.07095592    -0.41000
C2053       C  0.35062705  0.03824940  0.09843254     0.32300
C2054       C  0.34714378  0.06104797  0.11431121     0.14000
F2055       F  0.31939700  0.10851489  0.06475219    -0.13300
F2056       F  0.36138543  0.01591257  0.11013317    -0.13800
F2057       F  0.32612828  0.06393193  0.03316297    -0.16100
F2058       F  0.35437228  0.06010892  0.14072320    -0.14700
F2059       F  0.29746195  0.08465125  0.14449879    -0.14700
F2060       F  0.36694018  0.17106433  0.13775850    -0.16100
C2061       C  0.34507823  0.84579145  0.11473681     0.14000
C2062       C  0.34099327  0.87273026  0.12245846     0.00900
C2063       C  0.33390202  0.87870888  0.14915758     0.15900
C2064       C  0.33064114  0.85811307  0.16790235     0.25300
C2065       C  0.33460554  0.83091020  0.16039477    -0.41000
C2066       C  0.34206520  0.82499640  0.13355604     0.32400
C2067       C  0.34447086  0.89492502  0.10302841     0.01000
F2068       F  0.32995734  0.90466066  0.15712024    -0.13300
F2069       F  0.34727336  0.79926876  0.12561824    -0.13900
C2070       C  0.32815687  0.89663314  0.07989554     0.15900
C2071       C  0.32967293  0.91929008  0.06312974     0.25300
C2072       C  0.34731730  0.94046672  0.06955806    -0.41000
C2073       C  0.36410895  0.93833529  0.09225691     0.32300
C2074       C  0.36283747  0.91565627  0.10874564     0.14000
F2075       F  0.30974219  0.87713867  0.07444582    -0.13300
F2076       F  0.38153367  0.95845025  0.09867053    -0.13800
F2077       F  0.31268866  0.92138093  0.04175252    -0.16100
F2078       F  0.37909976  0.91419265  0.13073952    -0.14700
F2079       F  0.35281409  0.83972970  0.08918623    -0.14700
F2080       F  0.32345877  0.86504110  0.19340375    -0.16100
C2081       C  0.69582724  0.13586822  0.77483302     0.14000
C2082       C  0.70271468  0.10856161  0.77160497     0.00900
C2083       C  0.72845380  0.10176794  0.76208755     0.15900
C2084       C  0.74725732  0.12179562  0.75645011     0.25300
C2085       C  0.74075060  0.14925367  0.76012905    -0.41000
C2086       C  0.71463566  0.15605979  0.76917615     0.32400
C2087       C  0.68326640  0.08684378  0.77765291     0.01000
F2088       F  0.73535172  0.07555732  0.75787798    -0.13300
F2089       F  0.70737613  0.18216589  0.77332524    -0.13900
C2090       C  0.65822603  0.08592893  0.76448980     0.15900
C2091       C  0.64184039  0.06314806  0.76689656     0.25300
C2092       C  0.65028643  0.04093744  0.78255376    -0.41000
C2093       C  0.67448754  0.04276658  0.79717808     0.32300
C2094       C  0.69078634  0.06551335  0.79476824     0.14000
F2095       F  0.65039886  0.10628710  0.74788664    -0.13300
F2096       F  0.68265272  0.02234419  0.81352607    -0.13800
F2097       F  0.61863775  0.06218133  0.75242736    -0.16100
F2098       F  0.71441164  0.06636771  0.80855248    -0.14700
F2099       F  0.67111978  0.14299393  0.78413257    -0.14700
F2100       F  0.77179913  0.11410458  0.74717672    -0.16100
C2101       C  0.72657776  0.87828124  0.75733085     0.14000
C2102       C  0.70310106  0.87333296  0.77231690     0.00900
C2103       C  0.69819785  0.84711915  0.78195582     0.15900
C2104       C  0.71683272  0.82637229  0.77732904     0.25300
C2105       C  0.74054865  0.83137446  0.76260588    -0.41000
C2106       C  0.74513376  0.85761176  0.75259055     0.32400
C2107       C  0.68431622  0.89588432  0.77824587     0.01000
F2108       F  0.67580512  0.84180001  0.79666050    -0.13300
F2109       F  0.76757004  0.86336963  0.73809809    -0.13900
C2110       C  0.65728670  0.89492564  0.76990513     0.15900
C2111       C  0.64073507  0.91776071  0.77234540     0.25300
C2112       C  0.65090084  0.94192351  0.78348975    -0.41000
C2113       C  0.67740563  0.94191453  0.79382513     0.32300
C2114       C  0.69392314  0.91928061  0.79098359     0.14000
F2115       F  0.64729901  0.87234422  0.75805045    -0.13300
F2116       F  0.68770546  0.96397281  0.80637945    -0.13800
F2117       F  0.61525967  0.91648827  0.76251784    -0.16100
F2118       F  0.71962623  0.92039764  0.80028893    -0.14700
F2119       F  0.73148008  0.90323704  0.74709585    -0.14700
F2120       F  0.71226280  0.80173197  0.78839824    -0.16100
C2121       C  0.82195124  0.06590017  0.89433431     0.14000
C2122       C  0.84033844  0.08679724  0.89902530     0.00900
C2123       C  0.85842907  0.08494475  0.92071711     0.15900
C2124       C  0.85818754  0.06220552  0.93754572     0.25300
C2125       C  0.83995808  0.04104663  0.93263325    -0.41000
C2126       C  0.82165604  0.04327229  0.91103570     0.32400
C2127       C  0.84140119  0.10964708  0.88009145     0.01000
F2128       F  0.87713386  0.10450096  0.92470801    -0.13300
F2129       F  0.80365040  0.02332665  0.90585030    -0.13900
C2130       C  0.82903081  0.13429536  0.88645553     0.15900
C2131       C  0.82771535  0.15495728  0.86722654     0.25300
C2132       C  0.83854882  0.15103805  0.84122146    -0.41000
C2133       C  0.85183890  0.12654027  0.83541991     0.32300
C2134       C  0.85306103  0.10600966  0.85464861     0.14000
F2135       F  0.81727557  0.13789001  0.91090043    -0.13300
F2136       F  0.86377676  0.12241555  0.81114180    -0.13800
F2137       F  0.81487664  0.17828534  0.87373049    -0.16100
F2138       F  0.86519449  0.08226203  0.84829022    -0.14700
F2139       F  0.80474401  0.06714483  0.87305880    -0.14700
F2140       F  0.87683938  0.06008359  0.95746562    -0.16100
C2141       C  0.82064229  0.91884403  0.89230159     0.14000
C2142       C  0.83536813  0.89570072  0.89938415     0.00900
C2143       C  0.85094455  0.89584649  0.92305444     0.15900
C2144       C  0.85236201  0.91916067  0.93901441     0.25300
C2145       C  0.83818203  0.94262320  0.93147900    -0.41000
C2146       C  0.82215376  0.94211843  0.90803349     0.32400
C2147       C  0.83587705  0.87240144  0.88073987     0.01000
F2148       F  0.86567579  0.87383051  0.93006243    -0.13300
F2149       F  0.80784540  0.96416370  0.90023866    -0.13900
C2150       C  0.84555162  0.87602935  0.85444754     0.15900
C2151       C  0.84446105  0.85502017  0.83579101     0.25300
C2152       C  0.83371222  0.82968223  0.84301741    -0.41000
C2153       C  0.82481473  0.82578047  0.86976073     0.32300
C2154       C  0.82582290  0.84705930  0.88844078     0.14000
F2155       F  0.85608243  0.90013224  0.84678859    -0.13300
F2156       F  0.81426682  0.80176894  0.87761191    -0.13800
F2157       F  0.85423695  0.85955799  0.81063397    -0.16100
F2158       F  0.81610724  0.84324538  0.91373244    -0.14700
F2159       F  0.80492982  0.91894838  0.86986405    -0.14700
F2160       F  0.86868300  0.91921043  0.96099921    -0.16100
C2161       C  0.31385863  0.37341069  0.14325787     0.14000
C2162       C  0.31719605  0.36572714  0.11624395     0.00900
C2163       C  0.32305869  0.33869735  0.11016938     0.15900
C2164       C  0.32547589  0.31951873  0.13070277     0.25300
C2165       C  0.32229511  0.32699847  0.15805772    -0.41000
C2166       C  0.31644253  0.35432644  0.16399115     0.32400
C2167       C  0.31389088  0.38551216  0.09408276     0.01000
F2168       F  0.32652175  0.33085168  0.08415123    -0.13300
F2169       F  0.31251939  0.36263656  0.18977725    -0.13900
C2170       C  0.33231038  0.40677370  0.09068603     0.15900
C2171       C  0.33057436  0.42367643  0.06805617     0.25300
C2172       C  0.31043638  0.41942715  0.04852948    -0.41000
C2173       C  0.29149040  0.39877697  0.05252249     0.32300
C2174       C  0.29317261  0.38202230  0.07511802     0.14000
F2175       F  0.35275462  0.41027025  0.10853922    -0.13300
F2176       F  0.27139771  0.39471842  0.03438615    -0.13800
F2177       F  0.34953022  0.44305441  0.06438430    -0.16100
F2178       F  0.27479614  0.36201734  0.07831201    -0.14700
F2179       F  0.30725935  0.39927759  0.14950133    -0.14700
F2180       F  0.33089581  0.29361154  0.12353105    -0.16100
C2181       C  0.29788897  0.37678109  0.92636314     0.14000
C2182       C  0.31206007  0.38583884  0.90361736     0.00900
C2183       C  0.32228875  0.41226912  0.90340109     0.15900
C2184       C  0.31972168  0.42885314  0.92615805     0.25300
C2185       C  0.30719185  0.41909443  0.94974766    -0.41000
C2186       C  0.29549978  0.39316638  0.94918733     0.32400
C2187       C  0.31738240  0.36711751  0.88087514     0.01000
F2188       F  0.33604211  0.42153771  0.88165664    -0.13300
F2189       F  0.28192496  0.38344575  0.97085189    -0.13900
C2190       C  0.30883593  0.37329465  0.85456541     0.15900
C2191       C  0.31333485  0.35507753  0.83341915     0.25300
C2192       C  0.32598225  0.33008209  0.83829774    -0.41000
C2193       C  0.33520683  0.32433320  0.86461271     0.32300
C2194       C  0.33104898  0.34271139  0.88558496     0.14000
F2195       F  0.29519909  0.39652560  0.84953134    -0.13300
F2196       F  0.34835884  0.30090944  0.87014060    -0.13800
F2197       F  0.30426345  0.36145634  0.80841909    -0.16100
F2198       F  0.34043516  0.33666948  0.91061325    -0.14700
F2199       F  0.28666822  0.35178977  0.92660744    -0.14700
F2200       F  0.33080390  0.45388323  0.92546243    -0.16100
C2201       C  0.19796523  0.21588267  0.14194475     0.14000
C2202       C  0.20114891  0.23235782  0.11908179     0.00900
C2203       C  0.22163245  0.25190513  0.11880728     0.15900
C2204       C  0.23941378  0.25412177  0.14049403     0.25300
C2205       C  0.23704439  0.23680013  0.16278601    -0.41000
C2206       C  0.21569810  0.21823452  0.16378955     0.32400
C2207       C  0.18378362  0.22879406  0.09508599     0.01000
F2208       F  0.22452096  0.26872647  0.09738369    -0.13300
F2209       F  0.21287139  0.20145880  0.18525746    -0.13900
C2210       C  0.15583676  0.23261568  0.09672687     0.15900
C2211       C  0.13979621  0.23106471  0.07350488     0.25300
C2212       C  0.15156632  0.22596958  0.04810681    -0.41000
C2213       C  0.17954315  0.22091821  0.04692326     0.32300
C2214       C  0.19538468  0.22232027  0.07013972     0.14000
F2215       F  0.14422462  0.23890409  0.12069116    -0.13300
F2216       F  0.19179609  0.21455122  0.02329265    -0.13800
F2217       F  0.11294380  0.23549243  0.07589149    -0.16100
F2218       F  0.22222220  0.21739634  0.06824927    -0.14700
F2219       F  0.17847488  0.19671216  0.14256816    -0.14700
F2220       F  0.25897194  0.27325589  0.13979699    -0.16100
C2221       C  0.15771319  0.22610195  0.90290802     0.14000
C2222       C  0.18150587  0.24150197  0.90354407     0.00900
C2223       C  0.18795225  0.25593553  0.92710823     0.15900
C2224       C  0.17220949  0.25332000  0.95020576     0.25300
C2225       C  0.14907373  0.23698948  0.95001155    -0.41000
C2226       C  0.14139782  0.22417257  0.92587378     0.32400
C2227       C  0.20095870  0.24066640  0.88083874     0.01000
F2228       F  0.20999635  0.27210525  0.92799078    -0.13300
F2229       F  0.11909533  0.20839103  0.92496804    -0.13900
C2230       C  0.19305475  0.24645314  0.85421198     0.15900
C2231       C  0.21192252  0.24583857  0.83321234     0.25300
C2232       C  0.23923133  0.23991864  0.83855039    -0.41000
C2233       C  0.24675357  0.23326917  0.86520443     0.32300
C2234       C  0.22787697  0.23360167  0.88595102     0.14000
F2235       F  0.16720107  0.25336391  0.84858514    -0.13300
F2236       F  0.27236701  0.22588011  0.87138351    -0.13800
F2237       F  0.20340979  0.25147048  0.80779755    -0.16100
F2238       F  0.23593253  0.22653046  0.91117319    -0.14700
F2239       F  0.15111437  0.21160011  0.88063184    -0.14700
F2240       F  0.17979482  0.26664266  0.97292090    -0.16100
C2241       C  0.81030719  0.62950496  0.12028338     0.14000
C2242       C  0.82869117  0.60802717  0.12083153     0.00900
C2243       C  0.84614678  0.60497777  0.14288000     0.15900
C2244       C  0.84533625  0.62350629  0.16420774     0.25300
C2245       C  0.82722104  0.64537685  0.16341739    -0.41000
C2246       C  0.80953186  0.64803672  0.14142491     0.32400
C2247       C  0.83048567  0.58997579  0.09739784     0.01000
F2248       F  0.86459368  0.58472425  0.14317331    -0.13300
F2249       F  0.79149888  0.66865256  0.14042035    -0.13900
C2250       C  0.84351453  0.59897864  0.07406781     0.15900
C2251       C  0.84278428  0.58352806  0.05060639     0.25300
C2252       C  0.82876852  0.55881960  0.05004358    -0.41000
C2253       C  0.81637575  0.54942587  0.07379863     0.32300
C2254       C  0.81728228  0.56496820  0.09736270     0.14000
F2255       F  0.85648307  0.62309839  0.07390684    -0.13300
F2256       F  0.80229314  0.52594763  0.07390050    -0.13800
F2257       F  0.85579466  0.59284118  0.02841532    -0.16100
F2258       F  0.80440352  0.55618327  0.11983280    -0.14700
F2259       F  0.79347341  0.63276919  0.09892494    -0.14700
F2260       F  0.86312337  0.62090716  0.18486313    -0.16100
C2261       C  0.81676440  0.60228593  0.92854126     0.14000
C2262       C  0.83095163  0.59314089  0.90590631     0.00900
C2263       C  0.84216056  0.56707692  0.90596197     0.15900
C2264       C  0.83957851  0.55051743  0.92874316     0.25300
C2265       C  0.82581016  0.55995443  0.95169661    -0.41000
C2266       C  0.81412816  0.58587743  0.95117652     0.32400
C2267       C  0.83396382  0.61131005  0.88256380     0.01000
F2268       F  0.85640843  0.55811797  0.88439112    -0.13300
F2269       F  0.80001863  0.59540022  0.97261226    -0.13900
C2270       C  0.84808243  0.63565770  0.88551678     0.15900
C2271       C  0.84807439  0.65470048  0.86480553     0.25300
C2272       C  0.83393913  0.64970095  0.84069823    -0.41000
C2273       C  0.82046884  0.62488129  0.83744160     0.32300
C2274       C  0.82041270  0.60587355  0.85832403     0.14000
F2275       F  0.86131027  0.64127159  0.90883390    -0.13300
F2276       F  0.80611091  0.61963404  0.81471633    -0.13800
F2277       F  0.86180036  0.67812978  0.86842536    -0.16100
F2278       F  0.80586066  0.58285363  0.85552361    -0.14700
F2279       F  0.80547072  0.62728146  0.92868883    -0.14700
F2280       F  0.85161684  0.52588813  0.92883348    -0.16100
C2281       C  0.93291269  0.73137368  0.11379819     0.14000
C2282       C  0.95796152  0.71955472  0.11958350     0.00900
C2283       C  0.96355065  0.71111966  0.14604058     0.15900
C2284       C  0.94426690  0.71445494  0.16642056     0.25300
C2285       C  0.91910886  0.72649338  0.16065052    -0.41000
C2286       C  0.91366738  0.73468153  0.13396976     0.32400
C2287       C  0.97727802  0.71495242  0.09732166     0.01000
F2288       F  0.98725082  0.69875729  0.15190959    -0.13300
F2289       F  0.88969764  0.74602501  0.12721606    -0.13900
C2290       C  0.00235488  0.72808636  0.09668092     0.15900
C2291       C  0.01860262  0.72650713  0.07358229     0.25300
C2292       C  0.00974020  0.71207629  0.05074119    -0.41000
C2293       C  0.98522365  0.69795064  0.05208384     0.32300
C2294       C  0.96932740  0.69920507  0.07518920     0.14000
F2295       F  0.01036709  0.74366715  0.11773946    -0.13300
F2296       F  0.97637849  0.68311232  0.03083516    -0.13800
F2297       F  0.04209258  0.74047134  0.07295064    -0.16100
F2298       F  0.94560726  0.68562249  0.07569845    -0.14700
F2299       F  0.92702902  0.73971261  0.08836917    -0.14700
F2300       F  0.94983305  0.70487541  0.19147970    -0.16100
C2301       C  0.96495328  0.70949680  0.92864625     0.14000
C2302       C  0.97520803  0.72203877  0.90548247     0.00900
C2303       C  0.00198556  0.73101477  0.90532466     0.15900
C2304       C  0.01807220  0.72828038  0.92840321     0.25300
C2305       C  0.00758357  0.71630842  0.95197966    -0.41000
C2306       C  0.98097148  0.70646746  0.95155734     0.32400
C2307       C  0.95725444  0.72712799  0.88224504     0.01000
F2308       F  0.01212858  0.74355777  0.88322542    -0.13300
F2309       F  0.97027438  0.69384564  0.97333858    -0.13900
C2310       C  0.93442791  0.74346161  0.88568761     0.15900
C2311       C  0.91630144  0.74719025  0.86454915     0.25300
C2312       C  0.92055481  0.73453848  0.83948482    -0.41000
C2313       C  0.94389721  0.71880959  0.83572777     0.32300
C2314       C  0.96216116  0.71517652  0.85700915     0.14000
F2315       F  0.92964655  0.75577790  0.90968555    -0.13300
F2316       F  0.94835822  0.70590322  0.81198134    -0.13800
F2317       F  0.89451552  0.76327736  0.86862558    -0.16100
F2318       F  0.98405499  0.69916358  0.85334083    -0.14700
F2319       F  0.93918363  0.70039843  0.92916888    -0.14700
F2320       F  0.04342058  0.73846626  0.92796890    -0.16100
C2321       C  0.49975332  0.08773345  0.77112757     0.14000
C2322       C  0.47823998  0.08825276  0.75277551     0.00900
C2323       C  0.47512224  0.06722782  0.73417121     0.15900
C2324       C  0.49236258  0.04504019  0.73489711     0.25300
C2325       C  0.51267265  0.04329387  0.75462614    -0.41000
C2326       C  0.51686603  0.06524587  0.77219975     0.32400
C2327       C  0.45781918  0.10967700  0.75404064     0.01000
F2328       F  0.45480309  0.06785631  0.71583421    -0.13300
F2329       F  0.53618150  0.06415084  0.79156007    -0.13900
C2330       C  0.46291063  0.13501290  0.74270241     0.15900
C2331       C  0.44280524  0.15469560  0.74239732     0.25300
C2332       C  0.41730044  0.14932765  0.75370146    -0.41000
C2333       C  0.41252382  0.12399482  0.76560979     0.32300
C2334       C  0.43263418  0.10427410  0.76561315     0.06800
F2335       F  0.48715490  0.14043198  0.73134853    -0.13300
F2336       F  0.38863596  0.11846308  0.77767967    -0.13800
F2337       F  0.44811856  0.17872041  0.73032497    -0.16100
F2338       F  0.42760625  0.07984397  0.77695446    -0.14700
F2339       F  0.50323470  0.10833901  0.78886162    -0.14700
F2340       F  0.48879469  0.02488815  0.71667733    -0.16100
C2341       C  0.42839294  0.88150213  0.76408728     0.14000
C2342       C  0.45540613  0.87654162  0.75739080     0.00900
C2343       C  0.46333853  0.85016821  0.75069760     0.15900
C2344       C  0.44433956  0.82930073  0.74962007     0.25300
C2345       C  0.41691574  0.83435402  0.75546069    -0.41000
C2346       C  0.40939011  0.86074073  0.76322698     0.32400
C2347       C  0.47479005  0.89928568  0.75643897     0.01000
F2348       F  0.48937159  0.84474629  0.74435823    -0.13300
F2349       F  0.38366193  0.86661857  0.77033154    -0.13900
C2350       C  0.49822709  0.89926657  0.77238622     0.15900
C2351       C  0.51522056  0.92182956  0.77275138     0.25300
C2352       C  0.50890787  0.94486971  0.75732927    -0.41000
C2353       C  0.48580564  0.94445524  0.74081280     0.32300
C2354       C  0.46912331  0.92184028  0.74022134     0.14000
F2355       F  0.50402385  0.87792272  0.78855921    -0.13300
F2356       F  0.47916658  0.96600404  0.72521651    -0.13800
F2357       F  0.53700264  0.92164048  0.78931587    -0.16100
F2358       F  0.44717091  0.92204723  0.72387012    -0.14700
F2359       F  0.42039341  0.90662324  0.77165570    -0.14700
F2360       F  0.45286871  0.80431658  0.74224246    -0.16100
C2361       C  0.35611200  0.06514435  0.88709320     0.14000
C2362       C  0.34038785  0.08668437  0.89666730     0.00900
C2363       C  0.33002517  0.08567482  0.92297294     0.15900
C2364       C  0.33376168  0.06257598  0.93880131     0.25300
C2365       C  0.34814360  0.04026882  0.92853542    -0.41000
C2366       C  0.36005156  0.04220582  0.90290007     0.32400
C2367       C  0.33389312  0.10940745  0.87849444     0.01000
F2368       F  0.31521851  0.10650792  0.93283800    -0.13300
F2369       F  0.37550957  0.02184394  0.89305663    -0.13900
C2370       C  0.32088727  0.10430773  0.85387024     0.15900
C2371       C  0.31723908  0.12499850  0.83513187     0.25300
C2372       C  0.32664327  0.15129799  0.84067476    -0.41000
C2373       C  0.33791985  0.15670950  0.86623242     0.32300
C2374       C  0.34158948  0.13588622  0.88492308     0.14000
F2375       F  0.31207371  0.07906254  0.84781251    -0.13300
F2376       F  0.34674656  0.18181989  0.87271420    -0.13800
F2377       F  0.30476239  0.11910759  0.81145837    -0.16100
F2378       F  0.35391768  0.14134948  0.90874924    -0.14700
F2379       F  0.36743533  0.06623493  0.86220425    -0.14700
F2380       F  0.32207961  0.06155189  0.96351782    -0.16100
C2381       C  0.35437445  0.91636176  0.88618227     0.14000
C2382       C  0.34326572  0.89329048  0.89810222     0.00900
C2383       C  0.33627159  0.89364784  0.92545138     0.15900
C2384       C  0.33936583  0.91730858  0.94052418     0.25300
C2385       C  0.34942313  0.94101292  0.92829458    -0.41000
C2386       C  0.35744267  0.94002343  0.90106810     0.32400
C2387       C  0.33788370  0.86949652  0.88123356     0.01000
F2388       F  0.32548009  0.87142401  0.93725074    -0.13300
F2389       F  0.36821875  0.96192386  0.88869207    -0.13900
C2390       C  0.35367449  0.84612696  0.88370376     0.15900
C2391       C  0.35088035  0.82514796  0.86500421     0.25300
C2392       C  0.33210273  0.82736913  0.84381441    -0.41000
C2393       C  0.31562057  0.85035248  0.84216001     0.32300
C2394       C  0.31850148  0.87125757  0.86071903     0.14000
F2395       F  0.37276035  0.84434851  0.90325579    -0.13300
F2396       F  0.29695015  0.85270662  0.82229257    -0.13800
F2397       F  0.36770228  0.80358853  0.86653307    -0.16100
F2398       F  0.30289335  0.89365304  0.85824546    -0.14700
F2399       F  0.36198517  0.91597495  0.85988777    -0.14700
F2400       F  0.33142171  0.91719840  0.96671549    -0.16100
C2401       C  0.66073015  0.08168826  0.24322566     0.14000
C2402       C  0.68291390  0.08582269  0.22622167     0.00900
C2403       C  0.68821357  0.06713164  0.20556524     0.15900
C2404       C  0.67219582  0.04408706  0.20258997     0.25300
C2405       C  0.65064338  0.03928833  0.22030675    -0.41000
C2406       C  0.64475886  0.05856640  0.24037062     0.32400
C2407       C  0.70212192  0.10800777  0.23170068     0.01000
F2408       F  0.70930302  0.07098819  0.18861686    -0.13300
F2409       F  0.62461315  0.05421612  0.25831773    -0.13900
C2410       C  0.72830045  0.10176263  0.24025200     0.15900
C2411       C  0.74682903  0.12223538  0.24566267     0.25300
C2412       C  0.73963700  0.14967595  0.24249143    -0.41000
C2413       C  0.71304529  0.15584479  0.23435751     0.32300
C2414       C  0.69451704  0.13518286  0.22900929     0.14000
F2415       F  0.73584519  0.07562708  0.24374117    -0.13300
F2416       F  0.70493275  0.18181267  0.23114002    -0.13800
F2417       F  0.77176139  0.11495861  0.25426907    -0.16100
F2418       F  0.66929202  0.14170586  0.22067726    -0.14700
F2419       F  0.65547066  0.09928300  0.26356112    -0.14700
F2420       F  0.67781714  0.02638815  0.18245060    -0.16100
C2421       C  0.66093038  0.89582756  0.23627436     0.14000
C2422       C  0.68586985  0.89484834  0.22299903     0.00900
C2423       C  0.69268721  0.91574953  0.20513531     0.15900
C2424       C  0.67564253  0.93812057  0.20188336     0.25300
C2425       C  0.65141350  0.94006007  0.21653266    -0.41000
C2426       C  0.64373011  0.91808528  0.23290538     0.32400
C2427       C  0.70533854  0.87272195  0.22863569     0.01000
F2428       F  0.71612366  0.91462964  0.19112947    -0.13300
F2429       F  0.62029385  0.91875343  0.24693051    -0.13900
C2430       C  0.70048094  0.84634656  0.21948778     0.15900
C2431       C  0.71923323  0.82569400  0.22435232     0.25300
C2432       C  0.74314989  0.83092544  0.23882302    -0.41000
C2433       C  0.74794231  0.85751531  0.24790136     0.32300
C2434       C  0.72915563  0.87810221  0.24296389     0.14000
F2435       F  0.67781869  0.84073387  0.20524915    -0.13300
F2436       F  0.77068820  0.86363656  0.26181410    -0.13800
F2437       F  0.71444291  0.80080757  0.21391627    -0.16100
F2438       F  0.73405051  0.90334160  0.25248109    -0.14700
F2439       F  0.65383053  0.87583428  0.25357568    -0.14700
F2440       F  0.68293108  0.95797550  0.18449603    -0.16100
C2441       C  0.85926967  0.05969348  0.11958811     0.14000
C2442       C  0.84926530  0.08397389  0.10898324     0.00900
C2443       C  0.84362585  0.08569019  0.08125189     0.15900
C2444       C  0.84656261  0.06302471  0.06465101     0.25300
C2445       C  0.85513188  0.03815737  0.07557950    -0.41000
C2446       C  0.86227191  0.03710467  0.10313038     0.32400
C2447       C  0.84351414  0.10695469  0.12716233     0.01000
F2448       F  0.83387947  0.10893568  0.07047160    -0.13300
F2449       F  0.87182330  0.01408953  0.11450936    -0.13900
C2450       C  0.85453675  0.13258496  0.12215628     0.15900
C2451       C  0.84911884  0.15412735  0.13955502     0.25300
C2452       C  0.83299041  0.15021456  0.16253033    -0.41000
C2453       C  0.82198422  0.12453408  0.16749527     0.32300
C2454       C  0.82703213  0.10318965  0.14988469     0.14000
F2455       F  0.87152600  0.13645830  0.10109283    -0.13300
F2456       F  0.80639364  0.12000729  0.18952088    -0.13800
F2457       F  0.86094278  0.17836399  0.13477408    -0.16100
F2458       F  0.81581999  0.07874866  0.15511197    -0.14700
F2459       F  0.86577825  0.05767167  0.14613015    -0.14700
F2460       F  0.83966977  0.06523208  0.03824297    -0.16100
C2461       C  0.85135191  0.84422547  0.11716614     0.14000
C2462       C  0.83698334  0.86828466  0.12139505     0.00900
C2463       C  0.81932340  0.87023672  0.14335624     0.15900
C2464       C  0.81681037  0.84881892  0.16149936     0.25300
C2465       C  0.83208877  0.82508103  0.15809057    -0.41000
C2466       C  0.84897140  0.82273910  0.13541990     0.32400
C2467       C  0.84198029  0.89223598  0.10438921     0.01000
F2468       F  0.80491603  0.89319058  0.14749593    -0.13300
F2469       F  0.86438109  0.80038059  0.13183072    -0.13900
C2470       C  0.83250612  0.89351010  0.07775330     0.15900
C2471       C  0.83619185  0.91697058  0.06238456     0.25300
C2472       C  0.84959647  0.93950068  0.07344823    -0.41000
C2473       C  0.85965232  0.93769068  0.10004263     0.32300
C2474       C  0.85573399  0.91437159  0.11531954     0.14000
F2475       F  0.81881867  0.87238820  0.06699610    -0.13300
F2476       F  0.87333455  0.95846292  0.11145928    -0.13800
F2477       F  0.82556329  0.91798528  0.03717287    -0.16100
F2478       F  0.86529568  0.91340648  0.14098202    -0.14700
F2479       F  0.86867560  0.84210925  0.09611982    -0.14700
F2480       F  0.79957781  0.85138261  0.18259064    -0.16100
C2481       C  0.84491417  0.40407234  0.08988123     0.14000
C2482       C  0.82376402  0.38706549  0.09770309     0.00900
C2483       C  0.79988841  0.38648944  0.08251609     0.15900
C2484       C  0.79775043  0.40168849  0.05888150     0.25300
C2485       C  0.81910960  0.41832947  0.05081591    -0.41000
C2486       C  0.84245280  0.41988383  0.06670222     0.32400
C2487       C  0.82703289  0.36863682  0.12071710     0.01000
F2488       F  0.77905586  0.37051121  0.09016453    -0.13300
F2489       F  0.86332348  0.43578037  0.05902849    -0.13900
C2490       C  0.81067075  0.37145880  0.14356644     0.15900
C2491       C  0.81207040  0.35251379  0.16433790     0.25300
C2492       C  0.82959427  0.33030892  0.16226681    -0.41000
C2493       C  0.84633255  0.32775923  0.13958793     0.32300
C2494       C  0.84520296  0.34695547  0.11901638     0.14000
F2495       F  0.79295412  0.39226789  0.14543077    -0.13300
F2496       F  0.86366806  0.30664794  0.13733735    -0.13800
F2497       F  0.79532578  0.35509122  0.18581435    -0.16100
F2498       F  0.86105779  0.34383843  0.09694284    -0.14700
F2499       F  0.86799746  0.40507829  0.10453191    -0.14700
F2500       F  0.77497275  0.40006484  0.04381497    -0.16100
C2501       C  0.82169514  0.37425509  0.85561993     0.14000
C2502       C  0.82933601  0.36627875  0.88175844     0.00900
C2503       C  0.83966012  0.34020640  0.88577708     0.15900
C2504       C  0.84046677  0.32174906  0.86464916     0.25300
C2505       C  0.83167231  0.32913308  0.83856306    -0.41000
C2506       C  0.82301448  0.35589990  0.83413886     0.32400
C2507       C  0.82518359  0.38417583  0.90533854     0.01000
F2508       F  0.84866324  0.33239007  0.91046184    -0.13300
F2509       F  0.81464728  0.36405436  0.80937182    -0.13900
C2510       C  0.81100522  0.37445950  0.92785182     0.15900
C2511       C  0.80877424  0.39002385  0.95115152     0.25300
C2512       C  0.82009097  0.41603961  0.95227468    -0.41000
C2513       C  0.83348007  0.42618772  0.92935769     0.32300
C2514       C  0.83610171  0.41032016  0.90614164     0.14000
F2515       F  0.79932623  0.34967715  0.92733160    -0.13300
F2516       F  0.84522666  0.45092298  0.92978564    -0.13800
F2517       F  0.79545819  0.37949862  0.97260613    -0.16100
F2518       F  0.85028628  0.42009017  0.88490373    -0.14700
F2519       F  0.81179987  0.39941052  0.85107810    -0.14700
F2520       F  0.84963627  0.29647714  0.87006746    -0.16100
C2521       C  0.92882220  0.24159146  0.11207594     0.14000
C2522       C  0.95582379  0.23568803  0.11800974     0.00900
C2523       C  0.96371767  0.23293487  0.14507214     0.15900
C2524       C  0.94467797  0.23504501  0.16582939     0.25300
C2525       C  0.91727540  0.24018152  0.15989852    -0.41000
C2526       C  0.90980725  0.24390621  0.13264969     0.32400
C2527       C  0.97519534  0.23146806  0.09564029     0.01000
F2528       F  0.98971177  0.22722780  0.15137633    -0.13300
F2529       F  0.88402436  0.24971961  0.12561984    -0.13900
C2530       C  0.99811610  0.24788640  0.09284280     0.15900
C2531       C  0.01480460  0.24523359  0.07017910     0.25300
C2532       C  0.00842979  0.22652057  0.04978497    -0.41000
C2533       C  0.98610880  0.20948049  0.05316375     0.32300
C2534       C  0.96981044  0.21176775  0.07595393     0.14000
F2535       F  0.00353488  0.26738798  0.11130990    -0.13300
F2536       F  0.98004882  0.19055064  0.03429831    -0.13800
F2537       F  0.03625166  0.26196629  0.06744197    -0.16100
F2538       F  0.94841555  0.19495197  0.07863490    -0.14700
F2539       F  0.92078679  0.24509966  0.08611917    -0.14700
F2540       F  0.95310942  0.23127792  0.19161285    -0.16100
C2541       C  0.96027197  0.21406437  0.85651305     0.14000
C2542       C  0.95860232  0.23097603  0.87921440     0.00900
C2543       C  0.93880934  0.25125732  0.88004188     0.15900
C2544       C  0.92029965  0.25397351  0.85903095     0.25300
C2545       C  0.92124018  0.23646486  0.83681140    -0.41000
C2546       C  0.94170221  0.21682336  0.83537532     0.32400
C2547       C  0.97594528  0.22654632  0.90308701     0.01000
F2548       F  0.93716446  0.26817592  0.90152941    -0.13300
F2549       F  0.94276669  0.19938247  0.81426098    -0.13900
C2550       C  0.00376359  0.23129089  0.90213222     0.15900
C2551       C  0.01932559  0.22982140  0.92573613     0.25300
C2552       C  0.00721408  0.22361021  0.95078039    -0.41000
C2553       C  0.97938330  0.21777498  0.95116711     0.32300
C2554       C  0.96407212  0.21914155  0.92759967     0.14000
F2555       F  0.01565208  0.23842794  0.87855265    -0.13300
F2556       F  0.96664208  0.21096019  0.97438207    -0.13800
F2557       F  0.04599203  0.23550154  0.92408657    -0.16100
F2558       F  0.93734319  0.21354036  0.92874369    -0.14700
F2559       F  0.97898734  0.19409376  0.85544742    -0.14700
F2560       F  0.90141448  0.27375668  0.86035016    -0.16100
C2561       C  0.31102938  0.63869758  0.11300765     0.14000
C2562       C  0.32592102  0.61469379  0.11541691     0.00900
C2563       C  0.33982473  0.60920169  0.13942880     0.15900
C2564       C  0.33953909  0.62786233  0.16055985     0.25300
C2565       C  0.32506555  0.65216980  0.15805176    -0.41000
C2566       C  0.31036590  0.65719577  0.13425329     0.32400
C2567       C  0.32792326  0.59605891  0.09233033     0.01000
F2568       F  0.35459039  0.58625817  0.14194540    -0.13300
F2569       F  0.29519341  0.67989782  0.13162547    -0.13900
C2570       C  0.34069278  0.60457762  0.06866975     0.15900
C2571       C  0.34148039  0.58776883  0.04613755     0.25300
C2572       C  0.32905747  0.56212117  0.04668182    -0.41000
C2573       C  0.31725692  0.55320295  0.07093422     0.32300
C2574       C  0.31684147  0.57004330  0.09361608     0.14000
F2575       F  0.35245317  0.62929492  0.06742486    -0.13300
F2576       F  0.30517869  0.52868907  0.07249577    -0.13800
F2577       F  0.35446641  0.59676674  0.02380611    -0.16100
F2578       F  0.30480889  0.56133229  0.11657867    -0.14700
F2579       F  0.29723962  0.64423210  0.08998282    -0.14700
F2580       F  0.35444471  0.62272628  0.18294988    -0.16100
C2581       C  0.34158073  0.60479759  0.85491299     0.14000
C2582       C  0.33192699  0.61172841  0.88051757     0.00900
C2583       C  0.32203342  0.63773468  0.88534376     0.15900
C2584       C  0.32177470  0.65678265  0.86474999     0.25300
C2585       C  0.33172069  0.65019350  0.83889420    -0.41000
C2586       C  0.34149883  0.62389420  0.83415352     0.32400
C2587       C  0.33264297  0.59220411  0.90268466     0.01000
F2588       F  0.31262587  0.64466806  0.91011847    -0.13300
F2589       F  0.35174268  0.61687052  0.80977548    -0.13900
C2590       C  0.35152080  0.59543320  0.92342124     0.15900
C2591       C  0.35043421  0.57896176  0.94613433     0.25300
C2592       C  0.33023618  0.55924386  0.94849827    -0.41000
C2593       C  0.31191457  0.55536062  0.92722610     0.32300
C2594       C  0.31317048  0.57180104  0.90435017     0.14000
F2595       F  0.37056911  0.61501629  0.92189319    -0.13300
F2596       F  0.29185268  0.53689966  0.92931904    -0.13800
F2597       F  0.36896033  0.58245040  0.96598880    -0.16100
F2598       F  0.29463977  0.56876462  0.88443141    -0.14700
F2599       F  0.35172396  0.57975973  0.85030548    -0.14700
F2600       F  0.31154214  0.68160750  0.87021671    -0.16100
C2601       C  0.22267624  0.74681083  0.11534553     0.14000
C2602       C  0.20067281  0.72935762  0.11856643     0.00900
C2603       C  0.19709019  0.71578099  0.14314288     0.15900
C2604       C  0.21609241  0.71865533  0.16379545     0.25300
C2605       C  0.23868460  0.73543755  0.16017362    -0.41000
C2606       C  0.24155946  0.74977693  0.13588993     0.32400
C2607       C  0.18301617  0.72400948  0.09527037     0.01000
F2608       F  0.17591633  0.69884975  0.14667417    -0.13300
F2609       F  0.26268259  0.76669938  0.13198002    -0.13900
C2610       C  0.19443920  0.71403925  0.07141785     0.15900
C2611       C  0.17903647  0.71180453  0.04808366     0.25300
C2612       C  0.15166913  0.71933172  0.04815261    -0.41000
C2613       C  0.13995589  0.72839680  0.07243107     0.32300
C2614       C  0.15552794  0.73053605  0.09588393     0.14000
F2615       F  0.22082809  0.70685739  0.07064979    -0.13300
F2616       F  0.11386008  0.73652560  0.07321744    -0.13800
F2617       F  0.19113979  0.70242219  0.02539352    -0.16100
F2618       F  0.14407930  0.74012464  0.11881953    -0.14700
F2619       F  0.22605974  0.76070826  0.09198263    -0.14700
F2620       F  0.21316340  0.70393651  0.18670826    -0.16100
C2621       C  0.23090110  0.72436092  0.88845913     0.14000
C2622       C  0.20339302  0.72649254  0.88270278     0.00900
C2623       C  0.19491641  0.73071307  0.85609285     0.15900
C2624       C  0.21384701  0.73323258  0.83536827     0.25300
C2625       C  0.24172161  0.73151152  0.84103866    -0.41000
C2626       C  0.24987759  0.72663958  0.86791015     0.32400
C2627       C  0.18375379  0.72535800  0.90485940     0.01000
F2628       F  0.16829571  0.73314564  0.85034878    -0.13300
F2629       F  0.27624669  0.72403013  0.87456201    -0.13900
C2630       C  0.18198641  0.74699047  0.92303506     0.15900
C2631       C  0.16506047  0.74530072  0.94537632     0.25300
C2632       C  0.14985905  0.72188966  0.94992377    -0.41000
C2633       C  0.15120922  0.70038158  0.93152219     0.32300
C2634       C  0.16797670  0.70219985  0.90891783     0.14000
F2635       F  0.19706612  0.76953252  0.91934018    -0.13300
F2636       F  0.13754329  0.67714897  0.93628379    -0.13800
F2637       F  0.16376741  0.76635903  0.96287782    -0.16100
F2638       F  0.16974081  0.68100032  0.89164073    -0.14700
F2639       F  0.23941290  0.72016292  0.91415960    -0.14700
F2640       F  0.20474676  0.73786719  0.80995274    -0.16100
loop_ 
_geom_bond_atom_site_label_1 
_geom_bond_atom_site_label_2 
_geom_bond_distance 
_geom_bond_site_symmetry_2 
_ccdc_geom_bond_type 
C1            N2   1.357       .  A
C1            N6   1.353       .  A
C1         C2632   1.465       .  S
N2            C3   1.361       .  A
C3            N4   1.359   1_556  A
C3           C53   1.466   1_556  S
N4            C5   1.357       .  A
C5            N6   1.355   1_554  A
C5         C2612   1.480       .  S
C7            N8   1.361       .  A
C7           N12   1.353   1_554  A
C7         C2572   1.484       .  S
N8            C9   1.362   1_554  A
C9           N10   1.359       .  A
C9           C69   1.468       .  S
N10          C11   1.355       .  A
C11          N12   1.352       .  A
C11        C2592   1.467       .  S
C13          N14   1.357       .  A
C13          N18   1.357       .  A
C13        C2532   1.477       .  S
N14          C15   1.358   1_554  A
C15          N16   1.360       .  A
C15        C2552   1.494       .  S
N16          C17   1.361       .  A
C17          N18   1.360   1_556  A
C17          C63   1.469       .  S
C19          N20   1.358   1_556  A
C19          N24   1.359       .  A
C19        C2512   1.480       .  S
N20          C21   1.354       .  A
C21          N22   1.354       .  A
C21        C2485   1.464       .  S
N22          C23   1.357       .  A
C23          N24   1.358   1_554  A
C23          C59   1.464       .  S
C25          N26   1.355   1_545  A
C25          N30   1.359       .  A
C25        C2445   1.485       .  S
N26          C27   1.354       .  A
C27          N28   1.359       .  A
C27        C2472   1.487       .  S
N28          C29   1.362       .  A
C29          N30   1.360   1_565  A
C29          C75   1.471   1_554  S
C31          N32   1.359       .  A
C31          N36   1.361   1_545  A
C31        C2405   1.482       .  S
N32          C33   1.359   1_545  A
C33          N34   1.362       .  A
C33          C93   1.475       .  S
N34          C35   1.361       .  A
C35          N36   1.361       .  A
C35        C2425   1.491       .  S
C37          N38   1.358       .  A
C37          N42   1.354       .  A
C37        C2385   1.481       .  S
N38          C39   1.358   1_565  A
C39          N40   1.356       .  A
C39        C2365   1.477       .  S
N40          C41   1.356   1_545  A
C41          N42   1.355       .  A
C41          C87   1.457   1_556  S
C43          N44   1.355       .  A
C43          N48   1.359       .  A
C43        C2352   1.481       .  S
N44          C45   1.354   1_565  A
C45          N46   1.356       .  A
C45        C2325   1.475       .  S
N46          C47   1.362   1_545  A
C47          N48   1.360       .  A
C47          C81   1.466       .  S
C49          N50   1.356       .  A
C49          N54   1.358       .  A
C49        C2292   1.481       .  S
N50          C51   1.357   1_554  A
C51          N52   1.358       .  A
C51        C2305   1.485       .  S
N52          C53   1.359   1_556  A
C53          N54   1.361       .  A
C55          N56   1.353       .  A
C55          N60   1.355       .  A
C55        C2252   1.476       .  S
N56          C57   1.354   1_554  A
C57          N58   1.359       .  A
C57        C2265   1.477       .  S
N58          C59   1.361   1_556  A
C59          N60   1.359       .  A
C61          N62   1.357       .  A
C61          N66   1.355       .  A
C61        C2225   1.478       .  S
N62          C63   1.360       .  A
C63          N64   1.362   1_556  A
N64          C65   1.360       .  A
C65          N66   1.355   1_554  A
C65        C2212   1.490       .  S
C67          N68   1.359       .  A
C67          N72   1.358       .  A
C67        C2185   1.488       .  S
N68          C69   1.361       .  A
C69          N70   1.360   1_556  A
N70          C71   1.358       .  A
C71          N72   1.357   1_554  A
C71        C2172   1.476       .  S
C73          N74   1.358       .  A
C73          N78   1.353       .  A
C73        C2145   1.478       .  S
N74          C75   1.360       .  A
C75          N76   1.363   1_565  A
N76          C77   1.360       .  A
C77          N78   1.354   1_545  A
C77        C2125   1.475       .  S
C79          N80   1.353       .  A
C79          N84   1.355   1_545  A
C79        C2092   1.477       .  S
N80          C81   1.355   1_545  A
C81          N82   1.362       .  A
N82          C83   1.362       .  A
C83          N84   1.358       .  A
C83        C2112   1.491       .  S
C85          N86   1.356       .  A
C85          N90   1.353   1_545  A
C85        C2052   1.477       .  S
N86          C87   1.359   1_545  A
C87          N88   1.359       .  A
N88          C89   1.354       .  A
C89          N90   1.350       .  A
C89        C2072   1.465       .  S
C91          N92   1.357       .  A
C91          N96   1.353       .  A
C91        C2032   1.473       .  S
N92          C93   1.360       .  A
C93          N94   1.365   1_565  A
N94          C95   1.363       .  A
C95          N96   1.356   1_545  A
C95        C2005   1.493       .  S
C97          N98   1.356       .  A
C97         N102   1.355       .  A
C97        C1992   1.480       .  S
N98          C99   1.358       .  A
C99         N100   1.362       .  A
C99         C113   1.470   1_545  S
N100        C101   1.362       .  A
C101        N102   1.357       .  A
C101       C1965   1.487       .  S
C103        N104   1.355       .  A
C103        N108   1.355       .  A
C103       C1945   1.465       .  S
N104        C105   1.358       .  A
C105        N106   1.359       .  A
C105        C143   1.466       .  S
N106        C107   1.360       .  A
C107        N108   1.359       .  A
C107       C1925   1.486       .  S
C109        N110   1.354       .  A
C109        N114   1.360       .  A
C109       C1885   1.481       .  S
N110        C111   1.354       .  A
C111        N112   1.356       .  A
C111       C1905   1.474       .  S
N112        C113   1.362       .  A
C113        N114   1.362       .  A
C115        N116   1.361       .  A
C115        N120   1.355       .  A
C115       C1865   1.497       .  S
N116        C117   1.364       .  A
C117        N118   1.358       .  A
C117        C129   1.470       .  S
N118        C119   1.356       .  A
C119        N120   1.356       .  A
C119       C1845   1.474       .  S
C121        N122   1.355       .  A
C121        N126   1.357       .  A
C121       C1832   1.483       .  S
N122        C123   1.356       .  A
C123        N124   1.364       .  A
C123       C1805   1.490       .  S
N124        C125   1.366       .  A
C125        N126   1.359       .  A
C125        C137   1.474   1_565  S
C127        N128   1.363       .  A
C127        N132   1.355       .  A
C127       C1792   1.496       .  S
N128        C129   1.367       .  A
C129        N130   1.359       .  A
N130        C131   1.354       .  A
C131        N132   1.353       .  A
C131       C1772   1.474       .  S
C133        N134   1.354       .  A
C133        N138   1.360       .  A
C133       C1745   1.486       .  S
N134        C135   1.354       .  A
C135        N136   1.361       .  A
C135       C1732   1.497       .  S
N136        C137   1.366       .  A
C137        N138   1.361       .  A
C139        N140   1.355       .  A
C139        N144   1.360       .  A
C139       C1685   1.484       .  S
N140        C141   1.355       .  A
C141        N142   1.355       .  A
C141       C1705   1.473       .  S
N142        C143   1.358       .  A
C143        N144   1.360       .  A
C145        N146   1.359       .  A
C145        N150   1.356       .  A
C145       C1652   1.478       .  S
N146        C147   1.362       .  A
C147        N148   1.362       .  A
C147        C293   1.471       .  S
N148        C149   1.359       .  A
C149        N150   1.355       .  A
C149       C1665   1.478       .  S
C151        N152   1.358       .  A
C151        N156   1.358       .  A
C151       C1625   1.484       .  S
N152        C153   1.356       .  A
C153        N154   1.360       .  A
C153        C363   1.468       .  S
N154        C155   1.359       .  A
C155        N156   1.359       .  A
C155       C1605   1.486       .  S
O157       Zr193   2.429       .  S
O157        C168   1.291       .  A
O158       Zr192   2.461       .  S
O158        C169   1.296       .  A
O159       Zr165   2.438       .  S
O159        C170   1.292       .  A
O160       Zr165   2.435       .  S
O160        C171   1.292       .  A
O161       Zr195   2.439       .  S
O161        C171   1.293       .  A
O162       Zr194   2.447       .  S
O162        C170   1.294       .  A
O163       Zr165   2.426       .  S
O163        C169   1.291       .  A
O164       Zr165   2.430       .  S
O164        C168   1.290       .  A
Zr165       O166   2.338       .  S
Zr165       O167   2.333       .  S
Zr165       O175   2.342       .  S
Zr165       O173   2.341       .  S
O166       Zr192   2.339       .  S
O166       Zr195   2.340       .  S
O167       Zr193   2.336       .  S
O167       Zr194   2.338       .  S
C168       C2605   1.473       .  S
C169       C1785   1.485       .  S
C170       C1612   1.484       .  S
C171       C1825   1.487       .  S
H172        O173   0.965       .  S
O173       Zr192   2.336       .  S
O173       Zr194   2.344       .  S
H174        O175   0.965       .  S
O175       Zr193   2.331       .  S
O175       Zr195   2.346       .  S
O176       Zr192   2.449       .  S
O176        C199   1.295       .  A
O177       Zr193   2.425       .  S
O177        C200   1.289       .  A
O178       Zr194   2.432       .  S
O178        C201   1.292       .  A
O179       Zr195   2.436       .  S
O179        C202   1.292       .  A
O180       Zr195   2.420       .  S
O180        C203   1.289       .  A
O181       Zr194   2.443       .  S
O181        C204   1.293       .  A
O182       Zr196   2.419       .  S
O182        C205   1.289       .  A
O183       Zr196   2.427       .  S
O183        C206   1.290       .  A
O184       Zr194   2.447       .  S
O184        C205   1.294       .  A
O185       Zr195   2.451       .  S
O185        C206   1.295       .  A
O186       Zr192   2.435       .  S
O186        C201   1.292       .  A
O187       Zr193   2.421       .  S
O187        C204   1.289       .  A
O188       Zr193   2.431       .  S
O188        C203   1.291       .  A
O189       Zr192   2.433       .  S
O189        C202   1.292       .  A
O190       Zr196   2.433       .  S
O190        C199   1.291       .  A
O191       Zr196   2.438       .  S
O191        C200   1.293       .  A
Zr192       O198   2.342       .  S
Zr192       O210   2.334       .  S
Zr193       O197   2.339       .  S
Zr193       O208   2.338       .  S
Zr194       O198   2.341       .  S
Zr194       O208   2.339       .  S
Zr195       O197   2.336       .  S
Zr195       O210   2.328       .  S
Zr196       O197   2.330       .  S
Zr196       O198   2.339       .  S
Zr196       O210   2.335       .  S
Zr196       O208   2.340       .  S
C199       C1572   1.485       .  S
C200       C1552   1.478       .  S
C201       C1645   1.484       .  S
C202       C1592   1.477       .  S
C203       C2065   1.481       .  S
C204       C2565   1.475       .  S
C205       C1525   1.475       .  S
C206       C2025   1.493       .  S
H207        O208   0.965       .  S
H209        O210   0.964       .  S
C211        N212   1.353       .  A
C211        N216   1.359       .  A
C211       C1512   1.476       .  S
N212        C213   1.353       .  A
C213        N214   1.356       .  A
C213       C1485   1.482       .  S
N214        C215   1.359       .  A
C215        N216   1.361       .  A
C215        C603   1.466       .  S
C217        N218   1.359       .  A
C217        N222   1.361       .  A
C217       C1472   1.489       .  S
N218        C219   1.356       .  A
C219        N220   1.352       .  A
C219       C1445   1.472       .  S
N220        C221   1.355       .  A
C221        N222   1.359       .  A
C221        C285   1.463   1_545  S
O223       Zr259   2.426       .  S
O223        C234   1.290       .  A
O224       Zr258   2.461       .  S
O224        C235   1.297       .  A
O225       Zr231   2.453       .  S
O225        C236   1.295       .  A
O226       Zr231   2.431       .  S
O226        C237   1.292       .  A
O227       Zr261   2.444       .  S
O227        C237   1.293       .  A
O228       Zr260   2.428       .  S
O228        C236   1.290       .  A
O229       Zr231   2.420       .  S
O229        C235   1.290       .  A
O230       Zr231   2.441       .  S
O230        C234   1.293       .  A
Zr231       O232   2.344       .  S
Zr231       O233   2.335       .  S
Zr231       O241   2.340       .  S
Zr231       O239   2.339       .  S
O232       Zr258   2.341       .  S
O232       Zr261   2.338       .  S
O233       Zr259   2.348       .  S
O233       Zr260   2.344       .  S
C234       C2372   1.483       .  S
C235       C2192   1.486       .  S
C236       C1392   1.495       .  S
C237       C2232   1.490       .  S
H238        O239   0.963       .  S
O239       Zr258   2.331       .  S
O239       Zr260   2.333       .  S
H240        O241   0.964       .  S
O241       Zr259   2.332       .  S
O241       Zr261   2.339       .  S
O242       Zr258   2.444       .  S
O242        C265   1.294       .  A
O243       Zr259   2.420       .  S
O243        C266   1.289       .  A
O244       Zr260   2.425       .  S
O244        C267   1.290       .  A
O245       Zr261   2.437       .  S
O245        C268   1.292       .  A
O246       Zr261   2.427       .  S
O246        C269   1.290       .  A
O247       Zr260   2.414       .  S
O247        C270   1.288       .  A
O248       Zr262   2.442       .  S
O248        C271   1.293       .  A
O249       Zr262   2.444       .  S
O249        C272   1.293       .  A
O250       Zr260   2.436       .  S
O250        C271   1.291       .  A
O251       Zr261   2.433       .  S
O251        C272   1.291       .  A
O252       Zr258   2.446       .  S
O252        C267   1.294       .  A
O253       Zr259   2.442       .  S
O253        C270   1.293       .  A
O254       Zr259   2.465       .  S
O254        C269   1.297       .  A
O255       Zr258   2.440       .  S
O255        C268   1.293       .  A
O256       Zr262   2.425       .  S
O256        C265   1.289       .  A
O257       Zr262   2.439       .  S
O257        C266   1.293       .  A
Zr258       O264   2.340       .  S
Zr258       O276   2.348       .  S
Zr259       O263   2.334       .  S
Zr259       O274   2.346       .  S
Zr260       O264   2.328       .  S
Zr260       O274   2.340       .  S
Zr261       O263   2.334       .  S
Zr261       O276   2.339       .  S
Zr262       O263   2.333       .  S
Zr262       O264   2.337       .  S
Zr262       O276   2.347       .  S
Zr262       O274   2.335       .  S
C265       C1405   1.467       .  S
C266       C1452   1.480       .  S
C267       C1365   1.486       .  S
C268       C1425   1.475       .  S
C269       C1972   1.499       .  S
C270       C2332   1.476       .  S
C271       C1492   1.484       .  S
C272       C1932   1.478       .  S
H273        O274   0.963       .  S
H275        O276   0.963       .  S
C277        N278   1.362       .  A
C277        N282   1.358       .  A
C277       C1565   1.497       .  S
N278        C279   1.364       .  A
C279        N280   1.360       .  A
C279        C435   1.475       .  S
N280        C281   1.359       .  A
C281        N282   1.356       .  A
C281       C1352   1.489       .  S
C283        N284   1.353       .  A
C283        N288   1.357       .  A
C283       C1325   1.482       .  S
N284        C285   1.357       .  A
C285        N286   1.360       .  A
N286        C287   1.361       .  A
C287        N288   1.358       .  A
C287       C1585   1.483       .  S
C289        N290   1.358       .  A
C289        N294   1.360       .  A
C289       C1412   1.488       .  S
N290        C291   1.355       .  A
C291        N292   1.359       .  A
C291       C1305   1.480       .  S
N292        C293   1.360       .  A
C293        N294   1.361       .  A
C295        N296   1.358       .  A
C295        N300   1.360       .  A
C295       C1432   1.482       .  S
N296        C297   1.357       .  A
C297        N298   1.357       .  A
C297       C1285   1.480       .  S
N298        C299   1.361       .  A
C299        N300   1.359       .  A
C299        C467   1.469       .  S
O301       Zr337   2.441       .  S
O301        C312   1.293       .  A
O302       Zr336   2.424       .  S
O302        C313   1.290       .  A
O303       Zr309   2.430       .  S
O303        C314   1.291       .  A
O304       Zr309   2.435       .  S
O304        C315   1.291       .  A
O305       Zr339   2.444       .  S
O305        C315   1.294       .  A
O306       Zr338   2.461       .  S
O306        C314   1.297       .  A
O307       Zr309   2.434       .  S
O307        C313   1.292       .  A
O308       Zr309   2.430       .  S
O308        C312   1.291       .  A
Zr309       O310   2.329       .  S
Zr309       O311   2.343       .  S
Zr309       O319   2.337       .  S
Zr309       O317   2.338       .  S
O310       Zr336   2.332       .  S
O310       Zr339   2.335       .  S
O311       Zr337   2.335       .  S
O311       Zr338   2.336       .  S
C312       C2625   1.489       .  S
C313       C1852   1.479       .  S
C314       C1892   1.496       .  S
C315       C1292   1.495       .  S
H316        O317   0.966       .  S
O317       Zr336   2.348       .  S
O317       Zr338   2.346       .  S
H318        O319   0.965       .  S
O319       Zr337   2.339       .  S
O319       Zr339   2.333       .  S
O320       Zr336   2.429       .  S
O320        C343   1.291       .  A
O321       Zr337   2.437       .  S
O321        C344   1.292       .  A
O322       Zr338   2.425       .  S
O322        C345   1.290       .  A
O323       Zr339   2.421       .  S
O323        C346   1.290       .  A
O324       Zr339   2.446       .  S
O324        C347   1.294       .  A
O325       Zr338   2.437       .  S
O325        C348   1.292       .  A
O326       Zr340   2.440       .  S
O326        C349   1.293       .  A
O327       Zr340   2.433       .  S
O327        C350   1.292       .  A
O328       Zr338   2.451       .  S
O328        C349   1.295       .  A
O329       Zr339   2.441       .  S
O329        C350   1.293       .  A
O330       Zr336   2.440       .  S
O330        C345   1.294       .  A
O331       Zr337   2.427       .  S
O331        C348   1.289       .  A
O332       Zr337   2.408       .  S
O332        C347   1.287       .  A
O333       Zr336   2.464       .  S
O333        C346   1.297       .  A
O334       Zr340   2.446       .  S
O334        C343   1.294       .  A
O335       Zr340   2.434       .  S
O335        C344   1.292       .  A
Zr336       O342   2.338       .  S
Zr336       O354   2.338       .  S
Zr337       O341   2.337       .  S
Zr337       O352   2.334       .  S
Zr338       O342   2.346       .  S
Zr338       O352   2.339       .  S
Zr339       O341   2.335       .  S
Zr339       O354   2.347       .  S
Zr340       O341   2.340       .  S
Zr340       O342   2.333       .  S
Zr340       O354   2.342       .  S
Zr340       O352   2.341       .  S
C343       C1345   1.485       .  S
C344       C1272   1.482       .  S
C345       C1332   1.475       .  S
C346       C1312   1.488       .  S
C347       C2585   1.478       .  S
C348       C2392   1.470       .  S
C349       C2345   1.495       .  S
C350       C1245   1.491       .  S
H351        O352   0.966       .  S
H353        O354   0.966       .  S
C355        N356   1.357       .  A
C355        N360   1.360       .  A
C355       C1205   1.475       .  S
N356        C357   1.357       .  A
C357        N358   1.357       .  A
C357        C461   1.461       .  S
N358        C359   1.355       .  A
C359        N360   1.359       .  A
C359       C1232   1.476       .  S
C361        N362   1.355       .  A
C361        N366   1.352       .  A
C361       C1165   1.467       .  S
N362        C363   1.358       .  A
C363        N364   1.364       .  A
N364        C365   1.361       .  A
C365        N366   1.355       .  A
C365       C1192   1.481       .  S
C367        N368   1.358       .  A
C367        N372   1.352       .  A
C367       C1152   1.482       .  S
N368        C369   1.363       .  A
C369        N370   1.360       .  A
C369        C525   1.467       .  S
N370        C371   1.358       .  A
C371        N372   1.353       .  A
C371       C1532   1.478       .  S
C373        N374   1.358       .  A
C373        N378   1.356       .  A
C373       C1125   1.494       .  S
N374        C375   1.361       .  A
C375        N376   1.358       .  A
C375        C453   1.462   1_554  S
N376        C377   1.356       .  A
C377        N378   1.356       .  A
C377       C1545   1.478       .  S
O379       Zr415   2.431       .  S
O379        C390   1.291       .  A
O380       Zr414   2.442       .  S
O380        C391   1.292       .  A
O381       Zr387   2.437       .  S
O381        C392   1.292       .  A
O382       Zr387   2.433       .  S
O382        C393   1.290       .  A
O383       Zr417   2.442       .  S
O383        C393   1.293       .  A
O384       Zr416   2.442       .  S
O384        C392   1.293       .  A
O385       Zr387   2.429       .  S
O385        C391   1.291       .  A
O386       Zr387   2.452       .  S
O386        C390   1.294       .  A
Zr387       O388   2.339       .  S
Zr387       O389   2.332       .  S
Zr387       O397   2.337       .  S
Zr387       O395   2.342       .  S
O388       Zr414   2.343       .  S
O388       Zr417   2.346       .  S
O389       Zr415   2.340       .  S
O389       Zr416   2.342       .  S
C390       C2465   1.480       .  S
C391       C2245   1.471       .  S
C392       C2285   1.487       .  S
C393       C1132   1.466       .  S
H394        O395   0.964       .  S
O395       Zr414   2.334       .  S
O395       Zr416   2.334       .  S
H396        O397   0.963       .  S
O397       Zr415   2.338       .  S
O397       Zr417   2.344       .  S
O398       Zr414   2.442       .  S
O398        C421   1.293       .  A
O399       Zr415   2.442       .  S
O399        C422   1.292       .  A
O400       Zr416   2.439       .  S
O400        C423   1.292       .  A
O401       Zr417   2.449       .  S
O401        C424   1.295       .  A
O402       Zr417   2.461       .  S
O402        C425   1.297       .  A
O403       Zr416   2.431       .  S
O403        C426   1.292       .  A
O404       Zr418   2.432       .  S
O404        C427   1.291       .  A
O405       Zr418   2.438       .  S
O405        C428   1.293       .  A
O406       Zr416   2.441       .  S
O406        C427   1.294       .  A
O407       Zr417   2.460       .  S
O407        C428   1.296       .  A
O408       Zr414   2.446       .  S
O408        C423   1.293       .  A
O409       Zr415   2.437       .  S
O409        C426   1.292       .  A
O410       Zr415   2.441       .  S
O410        C425   1.293       .  A
O411       Zr414   2.421       .  S
O411        C424   1.289       .  A
O412       Zr418   2.445       .  S
O412        C421   1.293       .  A
O413       Zr418   2.425       .  S
O413        C422   1.290       .  A
Zr414       O420   2.331       .  S
Zr414       O432   2.350       .  S
Zr415       O419   2.339       .  S
Zr415       O430   2.347       .  S
Zr416       O420   2.338       .  S
Zr416       O430   2.346       .  S
Zr417       O419   2.339       .  S
Zr417       O432   2.350       .  S
Zr418       O419   2.340       .  S
Zr418       O420   2.337       .  S
Zr418       O432   2.338       .  S
Zr418       O430   2.348       .  S
C421       C1212   1.489       .  S
C422       C1105   1.469       .  S
C423       C1172   1.496       .  S
C424       C1145   1.472       .  S
C425       C2432   1.493       .  S
C426       C1812   1.481       .  S
C427       C1765   1.485       .  S
C428       C1085   1.491       .  S
H429        O430   0.964       .  S
H431        O432   0.964       .  S
C433        N434   1.362       .  A
C433        N438   1.358       .  A
C433       C1072   1.498       .  S
N434        C435   1.365       .  A
C435        N436   1.361       .  A
N436        C437   1.358       .  A
C437        N438   1.356       .  A
C437       C1092   1.482       .  S
C439        N440   1.357       .  A
C439        N444   1.355       .  A
C439       C1045   1.491       .  S
N440        C441   1.361       .  A
C441        N442   1.360       .  A
C441        C611   1.466   1_565  S
N442        C443   1.359       .  A
C443        N444   1.354       .  A
C443       C1112   1.481       .  S
C445        N446   1.355       .  A
C445        N450   1.357       .  A
C445       C1032   1.471       .  S
N446        C447   1.359       .  A
C447        N448   1.359       .  A
C447        C591   1.465       .  S
N448        C449   1.358       .  A
C449        N450   1.359       .  A
C449       C1252   1.476       .  S
C451        N452   1.359       .  A
C451        N456   1.351       .  A
C451       C1265   1.474       .  S
N452        C453   1.362       .  A
C453        N454   1.357       .  A
N454        C455   1.354       .  A
C455        N456   1.352       .  A
C455       C1005   1.469       .  S
C457        N458   1.358       .  A
C457        N462   1.354       .  A
C457        C972   1.483       .  S
N458        C459   1.357       .  A
C459        N460   1.358       .  A
C459        C985   1.480       .  S
N460        C461   1.358       .  A
C461        N462   1.356       .  A
C463        N464   1.355       .  A
C463        N468   1.353       .  A
C463        C945   1.469       .  S
N464        C465   1.358       .  A
C465        N466   1.363       .  A
C465        C925   1.490       .  S
N466        C467   1.364       .  A
C467        N468   1.358       .  A
O469       Zr505   2.424       .  S
O469        C480   1.290       .  A
O470       Zr504   2.447       .  S
O470        C481   1.294       .  A
O471       Zr477   2.435       .  S
O471        C482   1.291       .  A
O472       Zr477   2.435       .  S
O472        C483   1.292       .  A
O473       Zr507   2.438       .  S
O473        C483   1.292       .  A
O474       Zr506   2.442       .  S
O474        C482   1.293       .  A
O475       Zr477   2.439       .  S
O475        C481   1.293       .  A
O476       Zr477   2.446       .  S
O476        C480   1.293       .  A
Zr477       O478   2.340       .  S
Zr477       O479   2.339       .  S
Zr477       O487   2.339       .  S
Zr477       O485   2.345       .  S
O478       Zr504   2.348       .  S
O478       Zr507   2.336       .  S
O479       Zr505   2.338       .  S
O479       Zr506   2.328       .  S
C480       C2312   1.478       .  S
C481       C1872   1.478       .  S
C482        C952   1.494       .  S
C483       C1912   1.474       .  S
H484        O485   0.967       .  S
O485       Zr504   2.348       .  S
O485       Zr506   2.339       .  S
H486        O487   0.966       .  S
O487       Zr505   2.333       .  S
O487       Zr507   2.335       .  S
O488       Zr504   2.464       .  S
O488        C511   1.298       .  A
O489       Zr505   2.428       .  S
O489        C512   1.290       .  A
O490       Zr506   2.406       .  S
O490        C513   1.287       .  A
O491       Zr507   2.429       .  S
O491        C514   1.290       .  A
O492       Zr507   2.433       .  S
O492        C515   1.292       .  A
O493       Zr506   2.432       .  S
O493        C516   1.290       .  A
O494       Zr508   2.440       .  S
O494        C517   1.293       .  A
O495       Zr508   2.454       .  S
O495        C518   1.295       .  A
O496       Zr506   2.434       .  S
O496        C517   1.291       .  A
O497       Zr507   2.424       .  S
O497        C518   1.290       .  A
O498       Zr504   2.446       .  S
O498        C513   1.294       .  A
O499       Zr505   2.432       .  S
O499        C516   1.291       .  A
O500       Zr505   2.445       .  S
O500        C515   1.293       .  A
O501       Zr504   2.435       .  S
O501        C514   1.292       .  A
O502       Zr508   2.442       .  S
O502        C511   1.292       .  A
O503       Zr508   2.420       .  S
O503        C512   1.290       .  A
Zr504       O510   2.332       .  S
Zr504       O522   2.343       .  S
Zr505       O509   2.339       .  S
Zr505       O520   2.334       .  S
Zr506       O510   2.341       .  S
Zr506       O520   2.330       .  S
Zr507       O509   2.336       .  S
Zr507       O522   2.346       .  S
Zr508       O509   2.341       .  S
Zr508       O510   2.334       .  S
Zr508       O522   2.338       .  S
Zr508       O520   2.344       .  S
C511       C1065   1.488       .  S
C512       C1012   1.470       .  S
C513        C992   1.471       .  S
C514       C1052   1.466       .  S
C515       C2152   1.486       .  S
C516       C2272   1.477       .  S
C517       C1025   1.493       .  S
C518       C2105   1.485       .  S
H519        O520   0.966       .  S
H521        O522   0.967       .  S
C523        N524   1.362       .  A
C523        N528   1.356       .  A
C523        C885   1.487       .  S
N524        C525   1.364       .  A
C525        N526   1.357       .  A
N526        C527   1.354       .  A
C527        N528   1.355       .  A
C527        C905   1.473       .  S
C529        N530   1.358       .  A
C529        N534   1.360       .  A
C529        C865   1.479       .  S
N530        C531   1.356       .  A
C531        N532   1.358       .  A
C531        C845   1.479       .  S
N532        C533   1.361       .  A
C533        N534   1.361       .  A
C533        C597   1.471   1_554  S
O535       Zr571   2.439       .  S
O535        C546   1.293       .  A
O536       Zr570   2.447       .  S
O536        C547   1.294       .  A
O537       Zr543   2.429       .  S
O537        C548   1.290       .  A
O538       Zr543   2.446       .  S
O538        C549   1.294       .  A
O539       Zr573   2.420       .  S
O539        C549   1.289       .  A
O540       Zr572   2.448       .  S
O540        C548   1.295       .  A
O541       Zr543   2.424       .  S
O541        C547   1.290       .  A
O542       Zr543   2.441       .  S
O542        C546   1.292       .  A
Zr543       O544   2.335       .  S
Zr543       O545   2.335       .  S
Zr543       O553   2.330       .  S
Zr543       O551   2.349       .  S
O544       Zr570   2.340       .  S
O544       Zr573   2.336       .  S
O545       Zr571   2.340       .  S
O545       Zr572   2.343       .  S
C546       C2525   1.494       .  S
C547       C1712   1.484       .  S
C548       C1185   1.492       .  S
C549       C1752   1.477       .  S
H550        O551   0.967       .  S
O551       Zr570   2.334       .  S
O551       Zr572   2.335       .  S
H552        O553   0.966       .  S
O553       Zr571   2.336       .  S
O553       Zr573   2.338       .  S
O554       Zr570   2.435       .  S
O554        C577   1.292       .  A
O555       Zr571   2.453       .  S
O555        C578   1.295       .  A
O556       Zr572   2.453       .  S
O556        C579   1.295       .  A
O557       Zr573   2.439       .  S
O557        C580   1.292       .  A
O558       Zr573   2.422       .  S
O558        C581   1.289       .  A
O559       Zr572   2.426       .  S
O559        C582   1.290       .  A
O560       Zr574   2.433       .  S
O560        C583   1.292       .  A
O561       Zr574   2.446       .  S
O561        C584   1.293       .  A
O562       Zr572   2.443       .  S
O562        C583   1.293       .  A
O563       Zr573   2.428       .  S
O563        C584   1.290       .  A
O564       Zr570   2.445       .  S
O564        C579   1.293       .  A
O565       Zr571   2.431       .  S
O565        C582   1.291       .  A
O566       Zr571   2.439       .  S
O566        C581   1.293       .  A
O567       Zr570   2.421       .  S
O567        C580   1.289       .  A
O568       Zr574   2.431       .  S
O568        C577   1.291       .  A
O569       Zr574   2.430       .  S
O569        C578   1.291       .  A
Zr570       O576   2.340       .  S
Zr570       O588   2.348       .  S
Zr571       O575   2.338       .  S
Zr571       O586   2.334       .  S
Zr572       O576   2.339       .  S
Zr572       O586   2.344       .  S
Zr573       O575   2.335       .  S
Zr573       O588   2.331       .  S
Zr574       O575   2.334       .  S
Zr574       O576   2.349       .  S
Zr574       O588   2.337       .  S
Zr574       O586   2.339       .  S
C577        C805   1.468       .  S
C578        C872   1.485       .  S
C579       C1225   1.502       .  S
C580        C832   1.487       .  S
C581       C2452   1.474       .  S
C582       C2492   1.466       .  S
C583        C912   1.483       .  S
C584       C2412   1.493       .  S
H585        O586   0.966       .  S
H587        O588   0.967       .  S
C589        N590   1.359       .  A
C589        N594   1.354       .  A
C589       C1372   1.476       .  S
N590        C591   1.362       .  A
C591        N592   1.360       .  A
N592        C593   1.356       .  A
C593        N594   1.353       .  A
C593        C785   1.477       .  S
C595        N596   1.356       .  A
C595        N600   1.357       .  A
C595       C1385   1.474       .  S
N596        C597   1.359       .  A
C597        N598   1.362       .  A
N598        C599   1.362       .  A
C599        N600   1.360       .  A
C599        C765   1.492       .  S
C601        N602   1.357       .  A
C601        N606   1.356       .  A
C601        C752   1.482       .  S
N602        C603   1.360       .  A
C603        N604   1.359       .  A
N604        C605   1.359       .  A
C605        N606   1.357       .  A
C605        C812   1.486       .  S
C607        N608   1.356       .  A
C607        N612   1.360       .  A
C607        C825   1.475       .  S
N608        C609   1.356       .  A
C609        N610   1.355       .  A
C609        C725   1.481       .  S
N610        C611   1.358       .  A
C611        N612   1.361       .  A
O613       Zr649   2.446       .  S
O613        C624   1.294       .  A
O614       Zr648   2.446       .  S
O614        C625   1.293       .  A
O615       Zr621   2.439       .  S
O615        C626   1.293       .  A
O616       Zr621   2.453       .  S
O616        C627   1.295       .  A
O617       Zr651   2.429       .  S
O617        C627   1.291       .  A
O618       Zr650   2.439       .  S
O618        C626   1.293       .  A
O619       Zr621   2.426       .  S
O619        C625   1.290       .  A
O620       Zr621   2.426       .  S
O620        C624   1.290       .  A
Zr621       O622   2.335       .  S
Zr621       O623   2.342       .  S
Zr621       O631   2.339       .  S
Zr621       O629   2.340       .  S
O622       Zr648   2.344       .  S
O622       Zr651   2.345       .  S
O623       Zr649   2.336       .  S
O623       Zr650   2.336       .  S
C624       C2545   1.473       .  S
C625       C1952   1.493       .  S
C626       C1985   1.485       .  S
C627        C932   1.486       .  S
H628        O629   0.965       .  S
O629       Zr648   2.321       .  S
O629       Zr650   2.341       .  S
H630        O631   0.966       .  S
O631       Zr649   2.340       .  S
O631       Zr651   2.342       .  S
O632       Zr648   2.431       .  S
O632        C655   1.291       .  A
O633       Zr649   2.455       .  S
O633        C656   1.295       .  A
O634       Zr650   2.435       .  S
O634        C657   1.291       .  A
O635       Zr651   2.443       .  S
O635        C658   1.294       .  A
O636       Zr651   2.453       .  S
O636        C659   1.295       .  A
O637       Zr650   2.436       .  S
O637        C660   1.292       .  A
O638       Zr652   2.426       .  S
O638        C661   1.290       .  A
O639       Zr652   2.444       .  S
O639        C662   1.294       .  A
O640       Zr650   2.440       .  S
O640        C661   1.293       .  A
O641       Zr651   2.440       .  S
O641        C662   1.292       .  A
O642       Zr648   2.434       .  S
O642        C657   1.292       .  A
O643       Zr649   2.434       .  S
O643        C660   1.291       .  A
O644       Zr649   2.413       .  S
O644        C659   1.288       .  A
O645       Zr648   2.415       .  S
O645        C658   1.287       .  A
O646       Zr652   2.451       .  S
O646        C655   1.295       .  A
O647       Zr652   2.437       .  S
O647        C656   1.293       .  A
Zr648       O654   2.337       .  S
Zr648       O666   2.340       .  S
Zr649       O653   2.345       .  S
Zr649       O664   2.332       .  S
Zr650       O654   2.339       .  S
Zr650       O664   2.340       .  S
Zr651       O653   2.337       .  S
Zr651       O666   2.341       .  S
Zr652       O653   2.338       .  S
Zr652       O654   2.341       .  S
Zr652       O666   2.331       .  S
Zr652       O664   2.348       .  S
C655        C745   1.490       .  S
C656        C772   1.497       .  S
C657        C732   1.483       .  S
C658        C965   1.463       .  S
C659       C2505   1.485       .  S
C660       C2132   1.482       .  S
C661       C2085   1.484       .  S
C662        C792   1.481       .  S
H663        O664   0.966       .  S
H665        O666   0.965       .  S
O667       Zr703   2.435       .  S
O667        C678   1.292       .  A
O668       Zr702   2.440       .  S
O668        C679   1.292       .  A
O669       Zr675   2.442       .  S
O669        C680   1.292       .  A
O670       Zr675   2.446       .  S
O670        C681   1.293       .  A
O671       Zr705   2.425       .  S
O671        C681   1.290       .  A
O672       Zr704   2.452       .  S
O672        C680   1.294       .  A
O673       Zr675   2.434       .  S
O673        C679   1.292       .  A
O674       Zr675   2.436       .  S
O674        C678   1.292       .  A
Zr675       O676   2.338       .  S
Zr675       O677   2.343       .  S
Zr675       O685   2.347       .  S
Zr675       O683   2.337       .  S
O676       Zr702   2.335       .  S
O676       Zr705   2.343       .  S
O677       Zr703   2.344       .  S
O677       Zr704   2.340       .  S
C678       C2205   1.471       .  S
C679       C1692   1.482       .  S
C680       C1725   1.476       .  S
C681       C1632   1.476       .  S
H682        O683   0.966       .  S
O683       Zr702   2.345       .  S
O683       Zr704   2.340       .  S
H684        O685   0.966       .  S
O685       Zr703   2.344       .  S
O685       Zr705   2.337       .  S
O686       Zr702   2.424       .  S
O686        C709   1.290       .  A
O687       Zr703   2.444       .  S
O687        C710   1.293       .  A
O688       Zr704   2.445       .  S
O688        C711   1.294       .  A
O689       Zr705   2.432       .  S
O689        C712   1.292       .  A
O690       Zr705   2.449       .  S
O690        C713   1.294       .  A
O691       Zr704   2.441       .  S
O691        C714   1.293       .  A
O692       Zr706   2.439       .  S
O692        C715   1.292       .  A
O693       Zr706   2.445       .  S
O693        C716   1.294       .  A
O694       Zr704   2.439       .  S
O694        C715   1.293       .  A
O695       Zr705   2.438       .  S
O695        C716   1.292       .  A
O696       Zr702   2.443       .  S
O696        C711   1.293       .  A
O697       Zr703   2.431       .  S
O697        C714   1.290       .  A
O698       Zr703   2.433       .  S
O698        C713   1.291       .  A
O699       Zr702   2.454       .  S
O699        C712   1.295       .  A
O700       Zr706   2.436       .  S
O700        C709   1.292       .  A
O701       Zr706   2.429       .  S
O701        C710   1.291       .  A
Zr702       O708   2.341       .  S
Zr702       O720   2.343       .  S
Zr703       O707   2.334       .  S
Zr703       O718   2.340       .  S
Zr704       O708   2.344       .  S
Zr704       O718   2.343       .  S
Zr705       O707   2.334       .  S
Zr705       O720   2.340       .  S
Zr706       O707   2.338       .  S
Zr706       O708   2.342       .  S
Zr706       O720   2.335       .  S
Zr706       O718   2.337       .  S
C709       C1505   1.471       .  S
C710        C852   1.486       .  S
C711       C1465   1.482       .  S
C712       C1672   1.495       .  S
C713       C2165   1.496       .  S
C714       C2045   1.470       .  S
C715       C2012   1.476       .  S
C716        C892   1.478       .  S
H717        O718   0.966       .  S
H719        O720   0.966       .  S
C721        C722   1.404       .  A
C721        C726   1.401       .  A
C721        F739   1.358       .  S
C722        C727   1.479       .  S
C722        C723   1.404       .  A
C723        C724   1.394       .  A
C723        F728   1.358       .  S
C724        C725   1.408       .  A
C724        F740   1.358       .  S
C725        C726   1.411       .  A
C726        F729   1.358       .  S
C727        C730   1.402       .  A
C727        C734   1.405       .  A
C730        C731   1.392       .  A
C730        F735   1.358       .  S
C731        C732   1.409       .  A
C731        F737   1.358       .  S
C732        C733   1.412       .  A
C733        C734   1.403       .  A
C733        F736   1.358       .  S
C734        F738   1.358       .  S
C741        C742   1.405       .  A
C741        C746   1.397       .  A
C741        F759   1.359       .  S
C742        C747   1.483       .  S
C742        C743   1.404       .  A
C743        C744   1.401       .  A
C743        F748   1.357       .  S
C744        C745   1.412       .  A
C744        F760   1.357       .  S
C745        C746   1.412       .  A
C746        F749   1.358       .  S
C747        C750   1.405       .  A
C747        C754   1.406       .  A
C750        C751   1.395       .  A
C750        F755   1.358       .  S
C751        C752   1.408       .  A
C751        F757   1.358       .  S
C752        C753   1.410       .  A
C753        C754   1.402       .  A
C753        F756   1.358       .  S
C754        F758   1.358       .  S
C761        C762   1.409       .  A
C761        C766   1.406       .  A
C761        F779   1.357       .  S
C762        C767   1.496       .  S
C762        C763   1.409       .  A
C763        C764   1.398       .  A
C763        F768   1.358       .  S
C764        C765   1.409       .  A
C764        F780   1.358       .  S
C765        C766   1.411       .  A
C766        F769   1.358       .  S
C767        C770   1.406       .  A
C767        C774   1.411       .  A
C770        C771   1.395       .  A
C770        F775   1.358       .  S
C771        C772   1.411       .  A
C771        F777   1.357       .  S
C772        C773   1.413       .  A
C773        C774   1.408       .  A
C773        F776   1.358       .  S
C774        F778   1.358       .  S
C781        C782   1.406       .  A
C781        C786   1.403       .  A
C781        F799   1.358       .  S
C782        C787   1.479       .  S
C782        C783   1.403       .  A
C783        C784   1.392       .  A
C783        F788   1.358       .  S
C784        C785   1.407       .  A
C784        F800   1.358       .  S
C785        C786   1.409       .  A
C786        F789   1.358       .  S
C787        C790   1.404       .  A
C787        C794   1.404       .  A
C790        C791   1.401       .  A
C790        F795   1.358       .  S
C791        C792   1.409       .  A
C791        F797   1.358       .  S
C792        C793   1.408       .  A
C793        C794   1.397       .  A
C793        F796   1.358       .  S
C794        F798   1.358       .  S
C801        C802   1.403       .  A
C801        C806   1.395       .  A
C801        F819   1.358       .  S
C802        C807   1.470       .  S
C802        C803   1.403       .  A
C803        C804   1.399       .  A
C803        F808   1.358       .  S
C804        C805   1.407       .  A
C804        F820   1.358       .  S
C805        C806   1.404       .  A
C806        F809   1.358       .  S
C807        C810   1.401       .  A
C807        C814   1.399       .  A
C810        C811   1.400       .  A
C810        F815   1.358       .  S
C811        C812   1.413       .  A
C811        F817   1.357       .  S
C812        C813   1.413       .  A
C813        C814   1.394       .  A
C813        F816   1.357       .  S
C814        F818   1.358       .  S
C821        C822   1.405       .  A
C821        C826   1.399       .  A
C821        F839   1.358       .  S
C822        C827   1.477       .  S
C822        C823   1.405       .  A
C823        C824   1.396       .  A
C823        F828   1.359       .  S
C824        C825   1.407       .  A
C824        F840   1.358       .  S
C825        C826   1.406       .  A
C826        F829   1.357       .  S
C827        C830   1.404       .  A
C827        C834   1.402       .  A
C830        C831   1.399       .  A
C830        F835   1.358       .  S
C831        C832   1.413       .  A
C831        F837   1.358       .  S
C832        C833   1.414       .  A
C833        C834   1.393       .  A
C833        F836   1.358       .  S
C834        F838   1.358       .  S
C841        C842   1.405       .  A
C841        C846   1.397       .  A
C841        F859   1.359       .  S
C842        C847   1.480       .  S
C842        C843   1.404       .  A
C843        C844   1.401       .  A
C843        F848   1.358       .  S
C844        C845   1.407       .  A
C844        F860   1.357       .  S
C845        C846   1.407       .  A
C846        F849   1.358       .  S
C847        C850   1.401       .  A
C847        C854   1.406       .  A
C850        C851   1.392       .  A
C850        F855   1.358       .  S
C851        C852   1.411       .  A
C851        F857   1.358       .  S
C852        C853   1.413       .  A
C853        C854   1.404       .  A
C853        F856   1.357       .  S
C854        F858   1.358       .  S
C861        C862   1.405       .  A
C861        C866   1.401       .  A
C861        F879   1.358       .  S
C862        C867   1.480       .  S
C862        C863   1.404       .  A
C863        C864   1.397       .  A
C863        F868   1.358       .  S
C864        C865   1.408       .  A
C864        F880   1.358       .  S
C865        C866   1.408       .  A
C866        F869   1.358       .  S
C867        C870   1.403       .  A
C867        C874   1.404       .  A
C870        C871   1.401       .  A
C870        F875   1.357       .  S
C871        C872   1.410       .  A
C871        F877   1.358       .  S
C872        C873   1.410       .  A
C873        C874   1.398       .  A
C873        F876   1.356       .  S
C874        F878   1.359       .  S
C881        C882   1.404       .  A
C881        C886   1.404       .  A
C881        F899   1.357       .  S
C882        C887   1.479       .  S
C882        C883   1.401       .  A
C883        C884   1.397       .  A
C883        F888   1.358       .  S
C884        C885   1.412       .  A
C884        F900   1.358       .  S
C885        C886   1.410       .  A
C886        F889   1.357       .  S
C887        C890   1.404       .  A
C887        C894   1.404       .  A
C890        C891   1.403       .  A
C890        F895   1.358       .  S
C891        C892   1.409       .  A
C891        F897   1.358       .  S
C892        C893   1.406       .  A
C893        C894   1.398       .  A
C893        F896   1.358       .  S
C894        F898   1.358       .  S
C901        C902   1.405       .  A
C901        C906   1.401       .  A
C901        F919   1.358       .  S
C902        C907   1.475       .  S
C902        C903   1.403       .  A
C903        C904   1.392       .  A
C903        F908   1.358       .  S
C904        C905   1.405       .  A
C904        F920   1.358       .  S
C905        C906   1.408       .  A
C906        F909   1.358       .  S
C907        C910   1.402       .  A
C907        C914   1.403       .  A
C910        C911   1.399       .  A
C910        F915   1.358       .  S
C911        C912   1.411       .  A
C911        F917   1.357       .  S
C912        C913   1.412       .  A
C913        C914   1.394       .  A
C913        F916   1.359       .  S
C914        F918   1.359       .  S
C921        C922   1.407   1_455  A
C921        C926   1.406       .  A
C921        F939   1.358       .  S
C922        C927   1.487       .  S
C922        C923   1.404       .  A
C923        C924   1.395       .  A
C923        F928   1.358       .  S
C924        C925   1.411   1_655  A
C924        F940   1.358       .  S
C925        C926   1.411       .  A
C926        F929   1.357       .  S
C927        C930   1.407       .  A
C927        C934   1.405       .  A
C930        C931   1.404       .  A
C930        F935   1.358       .  S
C931        C932   1.411       .  A
C931        F937   1.358       .  S
C932        C933   1.409       .  A
C933        C934   1.395       .  A
C933        F936   1.358       .  S
C934        F938   1.358       .  S
C941        C942   1.408       .  A
C941        C946   1.402   1_655  A
C941        F959   1.358   1_655  S
C942        C947   1.484       .  S
C942        C943   1.407       .  A
C943        C944   1.396       .  A
C943        F948   1.358       .  S
C944        C945   1.402   1_655  A
C944        F960   1.358       .  S
C945        C946   1.405       .  A
C946        F949   1.358       .  S
C947        C950   1.404       .  A
C947        C954   1.404       .  A
C950        C951   1.403       .  A
C950        F955   1.358       .  S
C951        C952   1.416       .  A
C951        F957   1.358       .  S
C952        C953   1.413       .  A
C953        C954   1.394       .  A
C953        F956   1.358       .  S
C954        F958   1.358       .  S
C961        C962   1.405       .  A
C961        C966   1.401       .  A
C961        F979   1.358       .  S
C962        C967   1.470       .  S
C962        C963   1.403       .  A
C963        C964   1.390       .  A
C963        F968   1.358       .  S
C964        C965   1.401       .  A
C964        F980   1.359       .  S
C965        C966   1.407       .  A
C966        F969   1.358       .  S
C967        C970   1.401       .  A
C967        C974   1.400       .  A
C970        C971   1.401       .  A
C970        F975   1.358       .  S
C971        C972   1.415       .  A
C971        F977   1.358       .  S
C972        C973   1.409       .  A
C973        C974   1.390       .  A
C973        F976   1.357       .  S
C974        F978   1.359       .  S
C981        C982   1.402       .  A
C981        C986   1.399       .  A
C981        F999   1.358       .  S
C982        C987   1.470       .  S
C982        C983   1.401       .  A
C983        C984   1.395       .  A
C983        F988   1.358       .  S
C984        C985   1.409       .  A
C984       F1000   1.358       .  S
C985        C986   1.411       .  A
C986        F989   1.358       .  S
C987        C990   1.404       .  A
C987        C994   1.401       .  A
C990        C991   1.399       .  A
C990        F995   1.357       .  S
C991        C992   1.407       .  A
C991        F997   1.358       .  S
C992        C993   1.408       .  A
C993        C994   1.392       .  A
C993        F996   1.359       .  S
C994        F998   1.358       .  S
C1001      C1002   1.404       .  A
C1001      C1006   1.398       .  A
C1001      F1019   1.358       .  S
C1002      C1007   1.467       .  S
C1002      C1003   1.402       .  A
C1003      C1004   1.387       .  A
C1003      F1008   1.359       .  S
C1004      C1005   1.406       .  A
C1004      F1020   1.358       .  S
C1005      C1006   1.408       .  A
C1006      F1009   1.358       .  S
C1007      C1010   1.402       .  A
C1007      C1014   1.402       .  A
C1010      C1011   1.389       .  A
C1010      F1015   1.359       .  S
C1011      C1012   1.408       .  A
C1011      F1017   1.359       .  S
C1012      C1013   1.408       .  A
C1013      C1014   1.396       .  A
C1013      F1016   1.358       .  S
C1014      F1018   1.358       .  S
C1021      C1022   1.404       .  A
C1021      C1026   1.401       .  A
C1021      F1039   1.358       .  S
C1022      C1027   1.483       .  S
C1022      C1023   1.404       .  A
C1023      C1024   1.394       .  A
C1023      F1028   1.358       .  S
C1024      C1025   1.412       .  A
C1024      F1040   1.358       .  S
C1025      C1026   1.416       .  A
C1026      F1029   1.358       .  S
C1027      C1030   1.407       .  A
C1027      C1034   1.407       .  A
C1030      C1031   1.397       .  A
C1030      F1035   1.358       .  S
C1031      C1032   1.403       .  A
C1031      F1037   1.358       .  S
C1032      C1033   1.404       .  A
C1033      C1034   1.400       .  A
C1033      F1036   1.358       .  S
C1034      F1038   1.358       .  S
C1041      C1042   1.402       .  A
C1041      C1046   1.389       .  A
C1041      F1059   1.359       .  S
C1042      C1047   1.480       .  S
C1042      C1043   1.405       .  A
C1043      C1044   1.404       .  A
C1043      F1048   1.358       .  S
C1044      C1045   1.415       .  A
C1044      F1060   1.358       .  S
C1045      C1046   1.412       .  A
C1046      F1049   1.357       .  S
C1047      C1050   1.407       .  A
C1047      C1054   1.406       .  A
C1050      C1051   1.393       .  A
C1050      F1055   1.358       .  S
C1051      C1052   1.401       .  A
C1051      F1057   1.358       .  S
C1052      C1053   1.406       .  A
C1053      C1054   1.400       .  A
C1053      F1056   1.357       .  S
C1054      F1058   1.358       .  S
C1061      C1062   1.406       .  A
C1061      C1066   1.398       .  A
C1061      F1079   1.358       .  S
C1062      C1067   1.488       .  S
C1062      C1063   1.407       .  A
C1063      C1064   1.409       .  A
C1063      F1068   1.358       .  S
C1064      C1065   1.413       .  A
C1064      F1080   1.358       .  S
C1065      C1066   1.405       .  A
C1066      F1069   1.358       .  S
C1067      C1070   1.402       .  A
C1067      C1074   1.406       .  A
C1070      C1071   1.395       .  A
C1070      F1075   1.358       .  S
C1071      C1072   1.413       .  A
C1071      F1077   1.358       .  S
C1072      C1073   1.415       .  A
C1073      C1074   1.409       .  A
C1073      F1076   1.358       .  S
C1074      F1078   1.357       .  S
C1081      C1082   1.402       .  A
C1081      C1086   1.397       .  A
C1081      F1099   1.358       .  S
C1082      C1087   1.484       .  S
C1082      C1083   1.406       .  A
C1083      C1084   1.407       .  A
C1083      F1088   1.358       .  S
C1084      C1085   1.412       .  A
C1084      F1100   1.358       .  S
C1085      C1086   1.410       .  A
C1086      F1089   1.358       .  S
C1087      C1090   1.405       .  A
C1087      C1094   1.406       .  A
C1090      C1091   1.400       .  A
C1090      F1095   1.358       .  S
C1091      C1092   1.408       .  A
C1091      F1097   1.358       .  S
C1092      C1093   1.407       .  A
C1093      C1094   1.403       .  A
C1093      F1096   1.358       .  S
C1094      F1098   1.357       .  S
C1101      C1102   1.404       .  A
C1101      C1106   1.400       .  A
C1101      F1119   1.358       .  S
C1102      C1107   1.470       .  S
C1102      C1103   1.401       .  A
C1103      C1104   1.394       .  A
C1103      F1108   1.358       .  S
C1104      C1105   1.405       .  A
C1104      F1120   1.357       .  S
C1105      C1106   1.406       .  A
C1106      F1109   1.358       .  S
C1107      C1110   1.400       .  A
C1107      C1114   1.402       .  A
C1110      C1111   1.394       .  A
C1110      F1115   1.358       .  S
C1111      C1112   1.411       .  A
C1111      F1117   1.358       .  S
C1112      C1113   1.409       .  A
C1113      C1114   1.401       .  A
C1113      F1116   1.357       .  S
C1114      F1118   1.357       .  S
C1121      C1122   1.403       .  A
C1121      C1126   1.404       .  A
C1121      F1139   1.358       .  S
C1122      C1127   1.479       .  S
C1122      C1123   1.400       .  A
C1123      C1124   1.393       .  A
C1123      F1128   1.358       .  S
C1124      C1125   1.414       .  A
C1124      F1140   1.357       .  S
C1125      C1126   1.415       .  A
C1126      F1129   1.358       .  S
C1127      C1130   1.406       .  A
C1127      C1134   1.406       .  A
C1130      C1131   1.400       .  A
C1130      F1135   1.358       .  S
C1131      C1132   1.404       .  A
C1131      F1137   1.358       .  S
C1132      C1133   1.402       .  A
C1133      C1134   1.397       .  A
C1133      F1136   1.358       .  S
C1134      F1138   1.358       .  S
C1141      C1142   1.405       .  A
C1141      C1146   1.397       .  A
C1141      F1159   1.358       .  S
C1142      C1147   1.474       .  S
C1142      C1143   1.402       .  A
C1143      C1144   1.398       .  A
C1143      F1148   1.358       .  S
C1144      C1145   1.409       .  A
C1144      F1160   1.358       .  S
C1145      C1146   1.404       .  A
C1146      F1149   1.358       .  S
C1147      C1150   1.400       .  A
C1147      C1154   1.404       .  A
C1150      C1151   1.394       .  A
C1150      F1155   1.358       .  S
C1151      C1152   1.411       .  A
C1151      F1157   1.358       .  S
C1152      C1153   1.410       .  A
C1153      C1154   1.402       .  A
C1153      F1156   1.357       .  S
C1154      F1158   1.358       .  S
C1161      C1162   1.407       .  A
C1161      C1166   1.397   1_655  A
C1161      F1179   1.357       .  S
C1162      C1167   1.483       .  S
C1162      C1163   1.408       .  A
C1163      C1164   1.398       .  A
C1163      F1168   1.358       .  S
C1164      C1165   1.405   1_655  A
C1164      F1180   1.359       .  S
C1165      C1166   1.402       .  A
C1166      F1169   1.358       .  S
C1167      C1170   1.404       .  A
C1167      C1174   1.404       .  A
C1170      C1171   1.399       .  A
C1170      F1175   1.358       .  S
C1171      C1172   1.415       .  A
C1171      F1177   1.357       .  S
C1172      C1173   1.414       .  A
C1173      C1174   1.398       .  A
C1173      F1176   1.358       .  S
C1174      F1178   1.358       .  S
C1181      C1182   1.403       .  A
C1181      C1186   1.402       .  A
C1181      F1199   1.358       .  S
C1182      C1187   1.482       .  S
C1182      C1183   1.404       .  A
C1183      C1184   1.395       .  A
C1183      F1188   1.358       .  S
C1184      C1185   1.411       .  A
C1184      F1200   1.358       .  S
C1185      C1186   1.416       .  A
C1186      F1189   1.358       .  S
C1187      C1190   1.403       .  A
C1187      C1194   1.408   1_655  A
C1190      C1191   1.392       .  A
C1190      F1195   1.358       .  S
C1191      C1192   1.408   1_655  A
C1191      F1197   1.358       .  S
C1192      C1193   1.409       .  A
C1193      C1194   1.405       .  A
C1193      F1196   1.358       .  S
C1194      F1198   1.358       .  S
C1201      C1202   1.403       .  A
C1201      C1206   1.401       .  A
C1201      F1219   1.358       .  S
C1202      C1207   1.475       .  S
C1202      C1203   1.403       .  A
C1203      C1204   1.397       .  A
C1203      F1208   1.358       .  S
C1204      C1205   1.405       .  A
C1204      F1220   1.358       .  S
C1205      C1206   1.408       .  A
C1206      F1209   1.358       .  S
C1207      C1210   1.402       .  A
C1207      C1214   1.401       .  A
C1210      C1211   1.403       .  A
C1210      F1215   1.358       .  S
C1211      C1212   1.413       .  A
C1211      F1217   1.358       .  S
C1212      C1213   1.411       .  A
C1213      C1214   1.397       .  A
C1213      F1216   1.358       .  S
C1214      F1218   1.358       .  S
C1221      C1222   1.404       .  A
C1221      C1226   1.405       .  A
C1221      F1239   1.358       .  S
C1222      C1227   1.486       .  S
C1222      C1223   1.403       .  A
C1223      C1224   1.398       .  A
C1223      F1228   1.358       .  S
C1224      C1225   1.414       .  A
C1224      F1240   1.357       .  S
C1225      C1226   1.418       .  A
C1226      F1229   1.358       .  S
C1227      C1230   1.407       .  A
C1227      C1234   1.407       .  A
C1230      C1231   1.398       .  A
C1230      F1235   1.358       .  S
C1231      C1232   1.404       .  A
C1231      F1237   1.358       .  S
C1232      C1233   1.408       .  A
C1233      C1234   1.402       .  A
C1233      F1236   1.358       .  S
C1234      F1238   1.358       .  S
C1241      C1242   1.407       .  A
C1241      C1246   1.400       .  A
C1241      F1259   1.358       .  S
C1242      C1247   1.489       .  S
C1242      C1243   1.407       .  A
C1243      C1244   1.394       .  A
C1243      F1248   1.358       .  S
C1244      C1245   1.411       .  A
C1244      F1260   1.357       .  S
C1245      C1246   1.413       .  A
C1246      F1249   1.358       .  S
C1247      C1250   1.408       .  A
C1247      C1254   1.410       .  A
C1250      C1251   1.395       .  A
C1250      F1255   1.358       .  S
C1251      C1252   1.405       .  A
C1251      F1257   1.358       .  S
C1252      C1253   1.406       .  A
C1253      C1254   1.401       .  A
C1253      F1256   1.358       .  S
C1254      F1258   1.358       .  S
C1261      C1262   1.402       .  A
C1261      C1266   1.391       .  A
C1261      F1279   1.359       .  S
C1262      C1267   1.473       .  S
C1262      C1263   1.405       .  A
C1263      C1264   1.401       .  A
C1263      F1268   1.357       .  S
C1264      C1265   1.407       .  A
C1264      F1280   1.358       .  S
C1265      C1266   1.408       .  A
C1266      F1269   1.358       .  S
C1267      C1270   1.402       .  A
C1267      C1274   1.403       .  A
C1270      C1271   1.394       .  A
C1270      F1275   1.358       .  S
C1271      C1272   1.410       .  A
C1271      F1277   1.357       .  S
C1272      C1273   1.411       .  A
C1273      C1274   1.400       .  A
C1273      F1276   1.357       .  S
C1274      F1278   1.358       .  S
C1281      C1282   1.408       .  A
C1281      C1286   1.403       .  A
C1281      F1299   1.358       .  S
C1282      C1287   1.486       .  S
C1282      C1283   1.405       .  A
C1283      C1284   1.397       .  A
C1283      F1288   1.358       .  S
C1284      C1285   1.406       .  A
C1284      F1300   1.358       .  S
C1285      C1286   1.408       .  A
C1286      F1289   1.358       .  S
C1287      C1290   1.406       .  A
C1287      C1294   1.403       .  A
C1290      C1291   1.398       .  A
C1290      F1295   1.358       .  S
C1291      C1292   1.412       .  A
C1291      F1297   1.358       .  S
C1292      C1293   1.416       .  A
C1293      C1294   1.401       .  A
C1293      F1296   1.358       .  S
C1294      F1298   1.358       .  S
C1301      C1302   1.404       .  A
C1301      C1306   1.400       .  A
C1301      F1319   1.357       .  S
C1302      C1307   1.482       .  S
C1302      C1303   1.406       .  A
C1303      C1304   1.401       .  A
C1303      F1308   1.358       .  S
C1304      C1305   1.409       .  A
C1304      F1320   1.358       .  S
C1305      C1306   1.407       .  A
C1306      F1309   1.357       .  S
C1307      C1310   1.403       .  A
C1307      C1314   1.405       .  A
C1310      C1311   1.398       .  A
C1310      F1315   1.358       .  S
C1311      C1312   1.413       .  A
C1311      F1317   1.359       .  S
C1312      C1313   1.409       .  A
C1313      C1314   1.403       .  A
C1313      F1316   1.357       .  S
C1314      F1318   1.357       .  S
C1321      C1322   1.402       .  A
C1321      C1326   1.392       .  A
C1321      F1339   1.358       .  S
C1322      C1327   1.475       .  S
C1322      C1323   1.403       .  A
C1323      C1324   1.401       .  A
C1323      F1328   1.358       .  S
C1324      C1325   1.413       .  A
C1324      F1340   1.358       .  S
C1325      C1326   1.408       .  A
C1326      F1329   1.357       .  S
C1327      C1330   1.403       .  A
C1327      C1334   1.404       .  A
C1330      C1331   1.392       .  A
C1330      F1335   1.358       .  S
C1331      C1332   1.406       .  A
C1331      F1337   1.358       .  S
C1332      C1333   1.410       .  A
C1333      C1334   1.401       .  A
C1333      F1336   1.358       .  S
C1334      F1338   1.358       .  S
C1341      C1342   1.404       .  A
C1341      C1346   1.396       .  A
C1341      F1359   1.358       .  S
C1342      C1347   1.482       .  S
C1342      C1343   1.405       .  A
C1343      C1344   1.401       .  A
C1343      F1348   1.358       .  S
C1344      C1345   1.410       .  A
C1344      F1360   1.358       .  S
C1345      C1346   1.411       .  A
C1346      F1349   1.358       .  S
C1347      C1350   1.403       .  A
C1347      C1354   1.404       .  A
C1350      C1351   1.397       .  A
C1350      F1355   1.359       .  S
C1351      C1352   1.412       .  A
C1351      F1357   1.357       .  S
C1352      C1353   1.411       .  A
C1353      C1354   1.401       .  A
C1353      F1356   1.357       .  S
C1354      F1358   1.358       .  S
C1361      C1362   1.404       .  A
C1361      C1366   1.397       .  A
C1361      F1379   1.359       .  S
C1362      C1367   1.477       .  S
C1362      C1363   1.401       .  A
C1363      C1364   1.398       .  A
C1363      F1368   1.358       .  S
C1364      C1365   1.411       .  A
C1364      F1380   1.356       .  S
C1365      C1366   1.413       .  A
C1366      F1369   1.358       .  S
C1367      C1370   1.402       .  A
C1367      C1374   1.406       .  A
C1370      C1371   1.395       .  A
C1370      F1375   1.358       .  S
C1371      C1372   1.408       .  A
C1371      F1377   1.358       .  S
C1372      C1373   1.407       .  A
C1373      C1374   1.401       .  A
C1373      F1376   1.358       .  S
C1374      F1378   1.358       .  S
C1381      C1382   1.407       .  A
C1381      C1386   1.399       .  A
C1381      F1399   1.358       .  S
C1382      C1387   1.484       .  S
C1382      C1383   1.407       .  A
C1383      C1384   1.400       .  A
C1383      F1388   1.358       .  S
C1384      C1385   1.405       .  A
C1384      F1400   1.358       .  S
C1385      C1386   1.405       .  A
C1386      F1389   1.358       .  S
C1387      C1390   1.404       .  A
C1387      C1394   1.404       .  A
C1390      C1391   1.397       .  A
C1390      F1395   1.359       .  S
C1391      C1392   1.416       .  A
C1391      F1397   1.358       .  S
C1392      C1393   1.414       .  A
C1393      C1394   1.401       .  A
C1393      F1396   1.357       .  S
C1394      F1398   1.358       .  S
C1401      C1402   1.405       .  A
C1401      C1406   1.394       .  A
C1401      F1419   1.358       .  S
C1402      C1407   1.473       .  S
C1402      C1403   1.404       .  A
C1403      C1404   1.399       .  A
C1403      F1408   1.357       .  S
C1404      C1405   1.405       .  A
C1404      F1420   1.357       .  S
C1405      C1406   1.402       .  A
C1406      F1409   1.356       .  S
C1407      C1410   1.402       .  A
C1407      C1414   1.400       .  A
C1410      C1411   1.402       .  A
C1410      F1415   1.358       .  S
C1411      C1412   1.414       .  A
C1411      F1417   1.357       .  S
C1412      C1413   1.413       .  A
C1413      C1414   1.392       .  A
C1413      F1416   1.358       .  S
C1414      F1418   1.359       .  S
C1421      C1422   1.401       .  A
C1421      C1426   1.399       .  A
C1421      F1439   1.357       .  S
C1422      C1427   1.474       .  S
C1422      C1423   1.404       .  A
C1423      C1424   1.398       .  A
C1423      F1428   1.358       .  S
C1424      C1425   1.406       .  A
C1424      F1440   1.356       .  S
C1425      C1426   1.408       .  A
C1426      F1429   1.358       .  S
C1427      C1430   1.403       .  A
C1427      C1434   1.401       .  A
C1430      C1431   1.400       .  A
C1430      F1435   1.358       .  S
C1431      C1432   1.410       .  A
C1431      F1437   1.358       .  S
C1432      C1433   1.410       .  A
C1433      C1434   1.397       .  A
C1433      F1436   1.358       .  S
C1434      F1438   1.358       .  S
C1441      C1442   1.401       .  A
C1441      C1446   1.397       .  A
C1441      F1459   1.358       .  S
C1442      C1447   1.470       .  S
C1442      C1443   1.404       .  A
C1443      C1444   1.395       .  A
C1443      F1448   1.358       .  S
C1444      C1445   1.405       .  A
C1444      F1460   1.358       .  S
C1445      C1446   1.408       .  A
C1446      F1449   1.358       .  S
C1447      C1450   1.402       .  A
C1447      C1454   1.401       .  A
C1450      C1451   1.393       .  A
C1450      F1455   1.358       .  S
C1451      C1452   1.408       .  A
C1451      F1457   1.357       .  S
C1452      C1453   1.413       .  A
C1453      C1454   1.397       .  A
C1453      F1456   1.358       .  S
C1454      F1458   1.358       .  S
C1461      C1462   1.406       .  A
C1461      C1466   1.399       .  A
C1461      F1479   1.358       .  S
C1462      C1467   1.481       .  S
C1462      C1463   1.404       .  A
C1463      C1464   1.399       .  A
C1463      F1468   1.358       .  S
C1464      C1465   1.409       .  A
C1464      F1480   1.358       .  S
C1465      C1466   1.409       .  A
C1466      F1469   1.358       .  S
C1467      C1470   1.403       .  A
C1467      C1474   1.404       .  A
C1470      C1471   1.396       .  A
C1470      F1475   1.358       .  S
C1471      C1472   1.413       .  A
C1471      F1477   1.358       .  S
C1472      C1473   1.413       .  A
C1473      C1474   1.400       .  A
C1473      F1476   1.358       .  S
C1474      F1478   1.358       .  S
C1481      C1482   1.404       .  A
C1481      C1486   1.392       .  A
C1481      F1499   1.358       .  S
C1482      C1487   1.480       .  S
C1482      C1483   1.406       .  A
C1483      C1484   1.401       .  A
C1483      F1488   1.357       .  S
C1484      C1485   1.411       .  A
C1484      F1500   1.358       .  S
C1485      C1486   1.410       .  A
C1486      F1489   1.358       .  S
C1487      C1490   1.405       .  A
C1487      C1494   1.405       .  A
C1490      C1491   1.394       .  A
C1490      F1495   1.359       .  S
C1491      C1492   1.408       .  A
C1491      F1497   1.357       .  S
C1492      C1493   1.412       .  A
C1493      C1494   1.402       .  A
C1493      F1496   1.358       .  S
C1494      F1498   1.358       .  S
C1501      C1502   1.404       .  A
C1501      C1506   1.399       .  A
C1501      F1519   1.358       .  S
C1502      C1507   1.472       .  S
C1502      C1503   1.403       .  A
C1503      C1504   1.394       .  A
C1503      F1508   1.358       .  S
C1504      C1505   1.407       .  A
C1504      F1520   1.359       .  S
C1505      C1506   1.406       .  A
C1506      F1509   1.358       .  S
C1507      C1510   1.403       .  A
C1507      C1514   1.402       .  A
C1510      C1511   1.399       .  A
C1510      F1515   1.357       .  S
C1511      C1512   1.407       .  A
C1511      F1517   1.357       .  S
C1512      C1513   1.410       .  A
C1513      C1514   1.394       .  A
C1513      F1516   1.359       .  S
C1514      F1518   1.359       .  S
C1521      C1522   1.403       .  A
C1521      C1526   1.398       .  A
C1521      F1539   1.358       .  S
C1522      C1527   1.475       .  S
C1522      C1523   1.405       .  A
C1523      C1524   1.394       .  A
C1523      F1528   1.359       .  S
C1524      C1525   1.408       .  A
C1524      F1540   1.359       .  S
C1525      C1526   1.406       .  A
C1526      F1529   1.356       .  S
C1527      C1530   1.406       .  A
C1527      C1534   1.402       .  A
C1530      C1531   1.400       .  A
C1530      F1535   1.358       .  S
C1531      C1532   1.408       .  A
C1531      F1537   1.358       .  S
C1532      C1533   1.410       .  A
C1533      C1534   1.391       .  A
C1533      F1536   1.358       .  S
C1534      F1538   1.358       .  S
C1541      C1542   1.402       .  A
C1541      C1546   1.392       .  A
C1541      F1559   1.358       .  S
C1542      C1547   1.475       .  S
C1542      C1543   1.405       .  A
C1543      C1544   1.401       .  A
C1543      F1548   1.358       .  S
C1544      C1545   1.410       .  A
C1544      F1560   1.358       .  S
C1545      C1546   1.408       .  A
C1546      F1549   1.358       .  S
C1547      C1550   1.404       .  A
C1547      C1554   1.403       .  A
C1550      C1551   1.393       .  A
C1550      F1555   1.358       .  S
C1551      C1552   1.407       .  A
C1551      F1557   1.358       .  S
C1552      C1553   1.411       .  A
C1553      C1554   1.400       .  A
C1553      F1556   1.358       .  S
C1554      F1558   1.358       .  S
C1561      C1562   1.403       .  A
C1561      C1566   1.393       .  A
C1561      F1579   1.359       .  S
C1562      C1567   1.490       .  S
C1562      C1563   1.408       .  A
C1563      C1564   1.407       .  A
C1563      F1568   1.358       .  S
C1564      C1565   1.414       .  A
C1564      F1580   1.357       .  S
C1565      C1566   1.413       .  A
C1566      F1569   1.356       .  S
C1567      C1570   1.406       .  A
C1567      C1574   1.408       .  A
C1570      C1571   1.404       .  A
C1570      F1575   1.358       .  S
C1571      C1572   1.413       .  A
C1571      F1577   1.357       .  S
C1572      C1573   1.406       .  A
C1573      C1574   1.396       .  A
C1573      F1576   1.358       .  S
C1574      F1578   1.358       .  S
C1581      C1582   1.404       .  A
C1581      C1586   1.402       .  A
C1581      F1599   1.358       .  S
C1582      C1587   1.476       .  S
C1582      C1583   1.402       .  A
C1583      C1584   1.395       .  A
C1583      F1588   1.358       .  S
C1584      C1585   1.410       .  A
C1584      F1600   1.357       .  S
C1585      C1586   1.410       .  A
C1586      F1589   1.357       .  S
C1587      C1590   1.405       .  A
C1587      C1594   1.403       .  A
C1590      C1591   1.396       .  A
C1590      F1595   1.358       .  S
C1591      C1592   1.408       .  A
C1591      F1597   1.359       .  S
C1592      C1593   1.408       .  A
C1593      C1594   1.399       .  A
C1593      F1596   1.358       .  S
C1594      F1598   1.358       .  S
C1601      C1602   1.402       .  A
C1601      C1606   1.396       .  A
C1601      F1619   1.358       .  S
C1602      C1607   1.477       .  S
C1602      C1603   1.403       .  A
C1603      C1604   1.402       .  A
C1603      F1608   1.358       .  S
C1604      C1605   1.412       .  A
C1604      F1620   1.358       .  S
C1605      C1606   1.410       .  A
C1606      F1609   1.357       .  S
C1607      C1610   1.404       .  A
C1607      C1614   1.402       .  A
C1610      C1611   1.397       .  A
C1610      F1615   1.358       .  S
C1611      C1612   1.408       .  A
C1611      F1617   1.358       .  S
C1612      C1613   1.413       .  A
C1613      C1614   1.401       .  A
C1613      F1616   1.358       .  S
C1614      F1618   1.358       .  S
C1621      C1622   1.401       .  A
C1621      C1626   1.398       .  A
C1621      F1639   1.358       .  S
C1622      C1627   1.473       .  S
C1622      C1623   1.402       .  A
C1623      C1624   1.398       .  A
C1623      F1628   1.358       .  S
C1624      C1625   1.411       .  A
C1624      F1640   1.358       .  S
C1625      C1626   1.412       .  A
C1626      F1629   1.358       .  S
C1627      C1630   1.402       .  A
C1627      C1634   1.403       .  A
C1630      C1631   1.394       .  A
C1630      F1635   1.358       .  S
C1631      C1632   1.407       .  A
C1631      F1637   1.358       .  S
C1632      C1633   1.409       .  A
C1633      C1634   1.402       .  A
C1633      F1636   1.358       .  S
C1634      F1638   1.358       .  S
C1641      C1642   1.401       .  A
C1641      C1646   1.397       .  A
C1641      F1659   1.357       .  S
C1642      C1647   1.475       .  S
C1642      C1643   1.403       .  A
C1643      C1644   1.396       .  A
C1643      F1648   1.358       .  S
C1644      C1645   1.411       .  A
C1644      F1660   1.357       .  S
C1645      C1646   1.412       .  A
C1646      F1649   1.358       .  S
C1647      C1650   1.403       .  A
C1647      C1654   1.404       .  A
C1650      C1651   1.396       .  A
C1650      F1655   1.358       .  S
C1651      C1652   1.408       .  A
C1651      F1657   1.358       .  S
C1652      C1653   1.408       .  A
C1653      C1654   1.401       .  A
C1653      F1656   1.357       .  S
C1654      F1658   1.358       .  S
C1661      C1662   1.406       .  A
C1661      C1666   1.404       .  A
C1661      F1679   1.358       .  S
C1662      C1667   1.481       .  S
C1662      C1663   1.404       .  A
C1663      C1664   1.396       .  A
C1663      F1668   1.358       .  S
C1664      C1665   1.407       .  A
C1664      F1680   1.358       .  S
C1665      C1666   1.408       .  A
C1666      F1669   1.358       .  S
C1667      C1670   1.403       .  A
C1667      C1674   1.402       .  A
C1670      C1671   1.403       .  A
C1670      F1675   1.358       .  S
C1671      C1672   1.414       .  A
C1671      F1677   1.357       .  S
C1672      C1673   1.415       .  A
C1673      C1674   1.397       .  A
C1673      F1676   1.358       .  S
C1674      F1678   1.358       .  S
C1681      C1682   1.402       .  A
C1681      C1686   1.399       .  A
C1681      F1699   1.357       .  S
C1682      C1687   1.477       .  S
C1682      C1683   1.403       .  A
C1683      C1684   1.396       .  A
C1683      F1688   1.359       .  S
C1684      C1685   1.412       .  A
C1684      F1700   1.358       .  S
C1685      C1686   1.410       .  A
C1686      F1689   1.357       .  S
C1687      C1690   1.403       .  A
C1687      C1694   1.404       .  A
C1690      C1691   1.394       .  A
C1690      F1695   1.359       .  S
C1691      C1692   1.409       .  A
C1691      F1697   1.357       .  S
C1692      C1693   1.410       .  A
C1693      C1694   1.401       .  A
C1693      F1696   1.357       .  S
C1694      F1698   1.357       .  S
C1701      C1702   1.401   1_455  A
C1701      C1706   1.392       .  A
C1701      F1719   1.358       .  S
C1702      C1707   1.470       .  S
C1702      C1703   1.404       .  A
C1703      C1704   1.400   1_655  A
C1703      F1708   1.358       .  S
C1704      C1705   1.408       .  A
C1704      F1720   1.358       .  S
C1705      C1706   1.406       .  A
C1706      F1709   1.358       .  S
C1707      C1710   1.400       .  A
C1707      C1714   1.401       .  A
C1710      C1711   1.393       .  A
C1710      F1715   1.359       .  S
C1711      C1712   1.413       .  A
C1711      F1717   1.358       .  S
C1712      C1713   1.412       .  A
C1713      C1714   1.400       .  A
C1713      F1716   1.358       .  S
C1714      F1718   1.358       .  S
C1721      C1722   1.405       .  A
C1721      C1726   1.403       .  A
C1721      F1739   1.358       .  S
C1722      C1727   1.482       .  S
C1722      C1723   1.406       .  A
C1723      C1724   1.399       .  A
C1723      F1728   1.358       .  S
C1724      C1725   1.403       .  A
C1724      F1740   1.356       .  S
C1725      C1726   1.406       .  A
C1726      F1729   1.355       .  S
C1727      C1730   1.405       .  A
C1727      C1734   1.400       .  A
C1730      C1731   1.406       .  A
C1730      F1735   1.357       .  S
C1731      C1732   1.414       .  A
C1731      F1737   1.357       .  S
C1732      C1733   1.416       .  A
C1733      C1734   1.395       .  A
C1733      F1736   1.358       .  S
C1734      F1738   1.358       .  S
C1741      C1742   1.402   1_455  A
C1741      C1746   1.395       .  A
C1741      F1759   1.359       .  S
C1742      C1747   1.477       .  S
C1742      C1743   1.404       .  A
C1743      C1744   1.401   1_655  A
C1743      F1748   1.358       .  S
C1744      C1745   1.410       .  A
C1744      F1760   1.357       .  S
C1745      C1746   1.412       .  A
C1746      F1749   1.358       .  S
C1747      C1750   1.405       .  A
C1747      C1754   1.403       .  A
C1750      C1751   1.395       .  A
C1750      F1755   1.358       .  S
C1751      C1752   1.406       .  A
C1751      F1757   1.358       .  S
C1752      C1753   1.410       .  A
C1753      C1754   1.399       .  A
C1753      F1756   1.358       .  S
C1754      F1758   1.358       .  S
C1761      C1762   1.401       .  A
C1761      C1766   1.399       .  A
C1761      F1779   1.358       .  S
C1762      C1767   1.475       .  S
C1762      C1763   1.404       .  A
C1763      C1764   1.396       .  A
C1763      F1768   1.358       .  S
C1764      C1765   1.410       .  A
C1764      F1780   1.358       .  S
C1765      C1766   1.413       .  A
C1766      F1769   1.357       .  S
C1767      C1770   1.406       .  A
C1767      C1774   1.402   1_655  A
C1770      C1771   1.403   1_655  A
C1770      F1775   1.358       .  S
C1771      C1772   1.409       .  A
C1771      F1777   1.358       .  S
C1772      C1773   1.405       .  A
C1773      C1774   1.392       .  A
C1773      F1776   1.358       .  S
C1774      F1778   1.358       .  S
C1781      C1782   1.407       .  A
C1781      C1786   1.398       .  A
C1781      F1799   1.359       .  S
C1782      C1787   1.491       .  S
C1782      C1783   1.408       .  A
C1783      C1784   1.404       .  A
C1783      F1788   1.357       .  S
C1784      C1785   1.408       .  A
C1784      F1800   1.357       .  S
C1785      C1786   1.409       .  A
C1786      F1789   1.358       .  S
C1787      C1790   1.403       .  A
C1787      C1794   1.408       .  A
C1790      C1791   1.395       .  A
C1790      F1795   1.359       .  S
C1791      C1792   1.415       .  A
C1791      F1797   1.358       .  S
C1792      C1793   1.412       .  A
C1793      C1794   1.407       .  A
C1793      F1796   1.357       .  S
C1794      F1798   1.358       .  S
C1801      C1802   1.405       .  A
C1801      C1806   1.403   1_655  A
C1801      F1819   1.358       .  S
C1802      C1807   1.480       .  S
C1802      C1803   1.401   1_655  A
C1803      C1804   1.397       .  A
C1803      F1808   1.359       .  S
C1804      C1805   1.414       .  A
C1804      F1820   1.357       .  S
C1805      C1806   1.410       .  A
C1806      F1809   1.357       .  S
C1807      C1810   1.403       .  A
C1807      C1814   1.405       .  A
C1810      C1811   1.400       .  A
C1810      F1815   1.358       .  S
C1811      C1812   1.411       .  A
C1811      F1817   1.358       .  S
C1812      C1813   1.408       .  A
C1813      C1814   1.396       .  A
C1813      F1816   1.358       .  S
C1814      F1818   1.358       .  S
C1821      C1822   1.404       .  A
C1821      C1826   1.402       .  A
C1821      F1839   1.358       .  S
C1822      C1827   1.481       .  S
C1822      C1823   1.404       .  A
C1823      C1824   1.392       .  A
C1823      F1828   1.358       .  S
C1824      C1825   1.410       .  A
C1824      F1840   1.358       .  S
C1825      C1826   1.414       .  A
C1826      F1829   1.358       .  S
C1827      C1830   1.404       .  A
C1827      C1834   1.406       .  A
C1830      C1831   1.392       .  A
C1830      F1835   1.359       .  S
C1831      C1832   1.409       .  A
C1831      F1837   1.357       .  S
C1832      C1833   1.411       .  A
C1833      C1834   1.402       .  A
C1833      F1836   1.358       .  S
C1834      F1838   1.358       .  S
C1841      C1842   1.403       .  A
C1841      C1846   1.392       .  A
C1841      F1859   1.358       .  S
C1842      C1847   1.474       .  S
C1842      C1843   1.405       .  A
C1843      C1844   1.400       .  A
C1843      F1848   1.358       .  S
C1844      C1845   1.408       .  A
C1844      F1860   1.358       .  S
C1845      C1846   1.406       .  A
C1846      F1849   1.358       .  S
C1847      C1850   1.403       .  A
C1847      C1854   1.403       .  A
C1850      C1851   1.399       .  A
C1850      F1855   1.358       .  S
C1851      C1852   1.412       .  A
C1851      F1857   1.358       .  S
C1852      C1853   1.408       .  A
C1853      C1854   1.392       .  A
C1853      F1856   1.358       .  S
C1854      F1858   1.358       .  S
C1861      C1862   1.404       .  A
C1861      C1866   1.405   1_655  A
C1861      F1879   1.357       .  S
C1862      C1867   1.483       .  S
C1862      C1863   1.401   1_655  A
C1863      C1864   1.397       .  A
C1863      F1868   1.359       .  S
C1864      C1865   1.416       .  A
C1864      F1880   1.358       .  S
C1865      C1866   1.414       .  A
C1866      F1869   1.357       .  S
C1867      C1870   1.407       .  A
C1867      C1874   1.404       .  A
C1870      C1871   1.404       .  A
C1870      F1875   1.358       .  S
C1871      C1872   1.407       .  A
C1871      F1877   1.358       .  S
C1872      C1873   1.406       .  A
C1873      C1874   1.397       .  A
C1873      F1876   1.358       .  S
C1874      F1878   1.358       .  S
C1881      C1882   1.406       .  A
C1881      C1886   1.401       .  A
C1881      F1899   1.357       .  S
C1882      C1887   1.483       .  S
C1882      C1883   1.405       .  A
C1883      C1884   1.399       .  A
C1883      F1888   1.358       .  S
C1884      C1885   1.410       .  A
C1884      F1900   1.359       .  S
C1885      C1886   1.407       .  A
C1886      F1889   1.358       .  S
C1887      C1890   1.403       .  A
C1887      C1894   1.403       .  A
C1890      C1891   1.401       .  A
C1890      F1895   1.358       .  S
C1891      C1892   1.412       .  A
C1891      F1897   1.357       .  S
C1892      C1893   1.416       .  A
C1893      C1894   1.400       .  A
C1893      F1896   1.358       .  S
C1894      F1898   1.358       .  S
C1901      C1902   1.400   1_455  A
C1901      C1906   1.390       .  A
C1901      F1919   1.358       .  S
C1902      C1907   1.472       .  S
C1902      C1903   1.406       .  A
C1903      C1904   1.405   1_655  A
C1903      F1908   1.358       .  S
C1904      C1905   1.408       .  A
C1904      F1920   1.358       .  S
C1905      C1906   1.406       .  A
C1906      F1909   1.358       .  S
C1907      C1910   1.403       .  A
C1907      C1914   1.403       .  A
C1910      C1911   1.396       .  A
C1910      F1915   1.358       .  S
C1911      C1912   1.408       .  A
C1911      F1917   1.359       .  S
C1912      C1913   1.407       .  A
C1913      C1914   1.400       .  A
C1913      F1916   1.358       .  S
C1914      F1918   1.357       .  S
C1921      C1922   1.404       .  A
C1921      C1926   1.395       .  A
C1921      F1939   1.358       .  S
C1922      C1927   1.484       .  S
C1922      C1923   1.406       .  A
C1923      C1924   1.402       .  A
C1923      F1928   1.357       .  S
C1924      C1925   1.411       .  A
C1924      F1940   1.358       .  S
C1925      C1926   1.411       .  A
C1926      F1929   1.358       .  S
C1927      C1930   1.406       .  A
C1927      C1934   1.407       .  A
C1930      C1931   1.396       .  A
C1930      F1935   1.358       .  S
C1931      C1932   1.407       .  A
C1931      F1937   1.359       .  S
C1932      C1933   1.407       .  A
C1933      C1934   1.402       .  A
C1933      F1936   1.357       .  S
C1934      F1938   1.358       .  S
C1941      C1942   1.401       .  A
C1941      C1946   1.396   1_655  A
C1941      F1959   1.357       .  S
C1942      C1947   1.473       .  S
C1942      C1943   1.406       .  A
C1943      C1944   1.402   1_655  A
C1943      F1948   1.358       .  S
C1944      C1945   1.404       .  A
C1944      F1960   1.358       .  S
C1945      C1946   1.403       .  A
C1946      F1949   1.358       .  S
C1947      C1950   1.401       .  A
C1947      C1954   1.398       .  A
C1950      C1951   1.402       .  A
C1950      F1955   1.358       .  S
C1951      C1952   1.415       .  A
C1951      F1957   1.358       .  S
C1952      C1953   1.416       .  A
C1953      C1954   1.394       .  A
C1953      F1956   1.358       .  S
C1954      F1958   1.358       .  S
C1961      C1962   1.406       .  A
C1961      C1966   1.398       .  A
C1961      F1979   1.358       .  S
C1962      C1967   1.489       .  S
C1962      C1963   1.408       .  A
C1963      C1964   1.402       .  A
C1963      F1968   1.358       .  S
C1964      C1965   1.409       .  A
C1964      F1980   1.358       .  S
C1965      C1966   1.411       .  A
C1966      F1969   1.358       .  S
C1967      C1970   1.404       .  A
C1967      C1974   1.406       .  A
C1970      C1971   1.399       .  A
C1970      F1975   1.358       .  S
C1971      C1972   1.417       .  A
C1971      F1977   1.358       .  S
C1972      C1973   1.412       .  A
C1973      C1974   1.403       .  A
C1973      F1976   1.357       .  S
C1974      F1978   1.358       .  S
C1981      C1982   1.401       .  A
C1981      C1986   1.399       .  A
C1981      F1999   1.358       .  S
C1982      C1987   1.476       .  S
C1982      C1983   1.404       .  A
C1983      C1984   1.396       .  A
C1983      F1988   1.358       .  S
C1984      C1985   1.410       .  A
C1984      F2000   1.358       .  S
C1985      C1986   1.414       .  A
C1986      F1989   1.358       .  S
C1987      C1990   1.403   1_655  A
C1987      C1994   1.404       .  A
C1990      C1991   1.396       .  A
C1990      F1995   1.358       .  S
C1991      C1992   1.409       .  A
C1991      F1997   1.358       .  S
C1992      C1993   1.410       .  A
C1993      C1994   1.399   1_455  A
C1993      F1996   1.358       .  S
C1994      F1998   1.358       .  S
C2001      C2002   1.407       .  A
C2001      C2006   1.405       .  A
C2001      F2019   1.358       .  S
C2002      C2007   1.486       .  S
C2002      C2003   1.403       .  A
C2003      C2004   1.394       .  A
C2003      F2008   1.359       .  S
C2004      C2005   1.413       .  A
C2004      F2020   1.358       .  S
C2005      C2006   1.412       .  A
C2006      F2009   1.357       .  S
C2007      C2010   1.407       .  A
C2007      C2014   1.408       .  A
C2010      C2011   1.401       .  A
C2010      F2015   1.358       .  S
C2011      C2012   1.407       .  A
C2011      F2017   1.358       .  S
C2012      C2013   1.405       .  A
C2013      C2014   1.396       .  A
C2013      F2016   1.358       .  S
C2014      F2018   1.358       .  S
C2021      C2022   1.402       .  A
C2021      C2026   1.401       .  A
C2021      F2039   1.358       .  S
C2022      C2027   1.479       .  S
C2022      C2023   1.403       .  A
C2023      C2024   1.396       .  A
C2023      F2028   1.358       .  S
C2024      C2025   1.411       .  A
C2024      F2040   1.357       .  S
C2025      C2026   1.417       .  A
C2026      F2029   1.358       .  S
C2027      C2030   1.407       .  A
C2027      C2034   1.404       .  A
C2030      C2031   1.402       .  A
C2030      F2035   1.358       .  S
C2031      C2032   1.405       .  A
C2031      F2037   1.358       .  S
C2032      C2033   1.406       .  A
C2033      C2034   1.396       .  A
C2033      F2036   1.358       .  S
C2034      F2038   1.358       .  S
C2041      C2042   1.403       .  A
C2041      C2046   1.393       .  A
C2041      F2059   1.358       .  S
C2042      C2047   1.467       .  S
C2042      C2043   1.402       .  A
C2043      C2044   1.398       .  A
C2043      F2048   1.358       .  S
C2044      C2045   1.407       .  A
C2044      F2060   1.357       .  S
C2045      C2046   1.403       .  A
C2046      F2049   1.355       .  S
C2047      C2050   1.403       .  A
C2047      C2054   1.398       .  A
C2050      C2051   1.401       .  A
C2050      F2055   1.358       .  S
C2051      C2052   1.412       .  A
C2051      F2057   1.358       .  S
C2052      C2053   1.410       .  A
C2053      C2054   1.387       .  A
C2053      F2056   1.358       .  S
C2054      F2058   1.358       .  S
C2061      C2062   1.402       .  A
C2061      C2066   1.398       .  A
C2061      F2079   1.358       .  S
C2062      C2067   1.472       .  S
C2062      C2063   1.402       .  A
C2063      C2064   1.390       .  A
C2063      F2068   1.358       .  S
C2064      C2065   1.411       .  A
C2064      F2080   1.358       .  S
C2065      C2066   1.413       .  A
C2066      F2069   1.358       .  S
C2067      C2070   1.406       .  A
C2067      C2074   1.403       .  A
C2070      C2071   1.399       .  A
C2070      F2075   1.358       .  S
C2071      C2072   1.404       .  A
C2071      F2077   1.358       .  S
C2072      C2073   1.404       .  A
C2073      C2074   1.391       .  A
C2073      F2076   1.358       .  S
C2074      F2078   1.358       .  S
C2081      C2082   1.404       .  A
C2081      C2086   1.398       .  A
C2081      F2099   1.358       .  S
C2082      C2087   1.478       .  S
C2082      C2083   1.404       .  A
C2083      C2084   1.392       .  A
C2083      F2088   1.358       .  S
C2084      C2085   1.409       .  A
C2084      F2100   1.358       .  S
C2085      C2086   1.414       .  A
C2086      F2089   1.357       .  S
C2087      C2090   1.405       .  A
C2087      C2094   1.405       .  A
C2090      C2091   1.397       .  A
C2090      F2095   1.358       .  S
C2091      C2092   1.410       .  A
C2091      F2097   1.358       .  S
C2092      C2093   1.406       .  A
C2093      C2094   1.394       .  A
C2093      F2096   1.358       .  S
C2094      F2098   1.358       .  S
C2101      C2102   1.406       .  A
C2101      C2106   1.397       .  A
C2101      F2119   1.359       .  S
C2102      C2107   1.484       .  S
C2102      C2103   1.405       .  A
C2103      C2104   1.401       .  A
C2103      F2108   1.357       .  S
C2104      C2105   1.409       .  A
C2104      F2120   1.358       .  S
C2105      C2106   1.410       .  A
C2106      F2109   1.358       .  S
C2107      C2110   1.406       .  A
C2107      C2114   1.403       .  A
C2110      C2111   1.403       .  A
C2110      F2115   1.358       .  S
C2111      C2112   1.412       .  A
C2111      F2117   1.357       .  S
C2112      C2113   1.413       .  A
C2113      C2114   1.396       .  A
C2113      F2116   1.358       .  S
C2114      F2118   1.359       .  S
C2121      C2122   1.401       .  A
C2121      C2126   1.394       .  A
C2121      F2139   1.358       .  S
C2122      C2127   1.472       .  S
C2122      C2123   1.404       .  A
C2123      C2124   1.402       .  A
C2123      F2128   1.358       .  S
C2124      C2125   1.407       .  A
C2124      F2140   1.358       .  S
C2125      C2126   1.408       .  A
C2126      F2129   1.358       .  S
C2127      C2130   1.402       .  A
C2127      C2134   1.401       .  A
C2130      C2131   1.400       .  A
C2130      F2135   1.358       .  S
C2131      C2132   1.411       .  A
C2131      F2137   1.358       .  S
C2132      C2133   1.410       .  A
C2133      C2134   1.395       .  A
C2133      F2136   1.358       .  S
C2134      F2138   1.358       .  S
C2141      C2142   1.403       .  A
C2141      C2146   1.394       .  A
C2141      F2159   1.358       .  S
C2142      C2147   1.479       .  S
C2142      C2143   1.405       .  A
C2143      C2144   1.401       .  A
C2143      F2148   1.357       .  S
C2144      C2145   1.408       .  A
C2144      F2160   1.358       .  S
C2145      C2146   1.409       .  A
C2146      F2149   1.358       .  S
C2147      C2150   1.402       .  A
C2147      C2154   1.405       .  A
C2150      C2151   1.393       .  A
C2150      F2155   1.358       .  S
C2151      C2152   1.411       .  A
C2151      F2157   1.358       .  S
C2152      C2153   1.412       .  A
C2153      C2154   1.404       .  A
C2153      F2156   1.357       .  S
C2154      F2158   1.358       .  S
C2161      C2162   1.402       .  A
C2161      C2166   1.402       .  A
C2161      F2179   1.358       .  S
C2162      C2167   1.481       .  S
C2162      C2163   1.402       .  A
C2163      C2164   1.398       .  A
C2163      F2168   1.358       .  S
C2164      C2165   1.415       .  A
C2164      F2180   1.358       .  S
C2165      C2166   1.415       .  A
C2166      F2169   1.357       .  S
C2167      C2170   1.406       .  A
C2167      C2174   1.404       .  A
C2170      C2171   1.403       .  A
C2170      F2175   1.358       .  S
C2171      C2172   1.407       .  A
C2171      F2177   1.358       .  S
C2172      C2173   1.405       .  A
C2173      C2174   1.397       .  A
C2173      F2176   1.358       .  S
C2174      F2178   1.358       .  S
C2181      C2182   1.404       .  A
C2181      C2186   1.398       .  A
C2181      F2199   1.358       .  S
C2182      C2187   1.484       .  S
C2182      C2183   1.405       .  A
C2183      C2184   1.401       .  A
C2183      F2188   1.358       .  S
C2184      C2185   1.412       .  A
C2184      F2200   1.358       .  S
C2185      C2186   1.410       .  A
C2186      F2189   1.358       .  S
C2187      C2190   1.405       .  A
C2187      C2194   1.405       .  A
C2190      C2191   1.401       .  A
C2190      F2195   1.357       .  S
C2191      C2192   1.408       .  A
C2191      F2197   1.356       .  S
C2192      C2193   1.411       .  A
C2193      C2194   1.397       .  A
C2193      F2196   1.358       .  S
C2194      F2198   1.358       .  S
C2201      C2202   1.406       .  A
C2201      C2206   1.400       .  A
C2201      F2219   1.358       .  S
C2202      C2207   1.480       .  S
C2202      C2203   1.406       .  A
C2203      C2204   1.395       .  A
C2203      F2208   1.358       .  S
C2204      C2205   1.405       .  A
C2204      F2220   1.359       .  S
C2205      C2206   1.406       .  A
C2206      F2209   1.358       .  S
C2207      C2210   1.404       .  A
C2207      C2214   1.402       .  A
C2210      C2211   1.402       .  A
C2210      F2215   1.358       .  S
C2211      C2212   1.412       .  A
C2211      F2217   1.357       .  S
C2212      C2213   1.413       .  A
C2213      C2214   1.395       .  A
C2213      F2216   1.358       .  S
C2214      F2218   1.359       .  S
C2221      C2222   1.408       .  A
C2221      C2226   1.402       .  A
C2221      F2239   1.357       .  S
C2222      C2227   1.485       .  S
C2222      C2223   1.406       .  A
C2223      C2224   1.394       .  A
C2223      F2228   1.358       .  S
C2224      C2225   1.407       .  A
C2224      F2240   1.358       .  S
C2225      C2226   1.407       .  A
C2226      F2229   1.358       .  S
C2227      C2230   1.406       .  A
C2227      C2234   1.405       .  A
C2230      C2231   1.402       .  A
C2230      F2235   1.358       .  S
C2231      C2232   1.412       .  A
C2231      F2237   1.358       .  S
C2232      C2233   1.412       .  A
C2233      C2234   1.393       .  A
C2233      F2236   1.358       .  S
C2234      F2238   1.358       .  S
C2241      C2242   1.401       .  A
C2241      C2246   1.394       .  A
C2241      F2259   1.358       .  S
C2242      C2247   1.469       .  S
C2242      C2243   1.403       .  A
C2243      C2244   1.401       .  A
C2243      F2248   1.358       .  S
C2244      C2245   1.408       .  A
C2244      F2260   1.358       .  S
C2245      C2246   1.406       .  A
C2246      F2249   1.358       .  S
C2247      C2250   1.400       .  A
C2247      C2254   1.402       .  A
C2250      C2251   1.393       .  A
C2250      F2255   1.358       .  S
C2251      C2252   1.409       .  A
C2251      F2257   1.358       .  S
C2252      C2253   1.409       .  A
C2253      C2254   1.400       .  A
C2253      F2256   1.358       .  S
C2254      F2258   1.358       .  S
C2261      C2262   1.401       .  A
C2261      C2266   1.392       .  A
C2261      F2279   1.358       .  S
C2262      C2267   1.474       .  S
C2262      C2263   1.405       .  A
C2263      C2264   1.402       .  A
C2263      F2268   1.358       .  S
C2264      C2265   1.408       .  A
C2264      F2280   1.358       .  S
C2265      C2266   1.408       .  A
C2266      F2269   1.358       .  S
C2267      C2270   1.403       .  A
C2267      C2274   1.403       .  A
C2270      C2271   1.394       .  A
C2270      F2275   1.358       .  S
C2271      C2272   1.408       .  A
C2271      F2277   1.358       .  S
C2272      C2273   1.410       .  A
C2273      C2274   1.400       .  A
C2273      F2276   1.358       .  S
C2274      F2278   1.358       .  S
C2281      C2282   1.404       .  A
C2281      C2286   1.394       .  A
C2281      F2299   1.358       .  S
C2282      C2287   1.481       .  S
C2282      C2283   1.404       .  A
C2283      C2284   1.403       .  A
C2283      F2288   1.358       .  S
C2284      C2285   1.413       .  A
C2284      F2300   1.358       .  S
C2285      C2286   1.410       .  A
C2286      F2289   1.358       .  S
C2287      C2290   1.407   1_655  A
C2287      C2294   1.403       .  A
C2290      C2291   1.404       .  A
C2290      F2295   1.358       .  S
C2291      C2292   1.409       .  A
C2291      F2297   1.358       .  S
C2292      C2293   1.407   1_455  A
C2293      C2294   1.394       .  A
C2293      F2296   1.357       .  S
C2294      F2298   1.358       .  S
C2301      C2302   1.403       .  A
C2301      C2306   1.394       .  A
C2301      F2319   1.358       .  S
C2302      C2307   1.478       .  S
C2302      C2303   1.403   1_655  A
C2303      C2304   1.401       .  A
C2303      F2308   1.358       .  S
C2304      C2305   1.412       .  A
C2304      F2320   1.358       .  S
C2305      C2306   1.410   1_455  A
C2306      F2309   1.357       .  S
C2307      C2310   1.403       .  A
C2307      C2314   1.406       .  A
C2310      C2311   1.393       .  A
C2310      F2315   1.358       .  S
C2311      C2312   1.408       .  A
C2311      F2317   1.358       .  S
C2312      C2313   1.409       .  A
C2313      C2314   1.402       .  A
C2313      F2316   1.358       .  S
C2314      F2318   1.358       .  S
C2321      C2322   1.403       .  A
C2321      C2326   1.401       .  A
C2321      F2339   1.358       .  S
C2322      C2327   1.468       .  S
C2322      C2323   1.400       .  A
C2323      C2324   1.393       .  A
C2323      F2328   1.358       .  S
C2324      C2325   1.407       .  A
C2324      F2340   1.358       .  S
C2325      C2326   1.409       .  A
C2326      F2329   1.358       .  S
C2327      C2330   1.399       .  A
C2327      C2334   1.404       .  A
C2330      C2331   1.395       .  A
C2330      F2335   1.358       .  S
C2331      C2332   1.412       .  A
C2331      F2337   1.358       .  S
C2332      C2333   1.407       .  A
C2333      C2334   1.396       .  A
C2333      F2336   1.358       .  S
C2334      F2338   1.358       .  S
C2341      C2342   1.404       .  A
C2341      C2346   1.398       .  A
C2341      F2359   1.358       .  S
C2342      C2347   1.484       .  S
C2342      C2343   1.404       .  A
C2343      C2344   1.402       .  A
C2343      F2348   1.358       .  S
C2344      C2345   1.415       .  A
C2344      F2360   1.358       .  S
C2345      C2346   1.412       .  A
C2346      F2349   1.358       .  S
C2347      C2350   1.407       .  A
C2347      C2354   1.404       .  A
C2350      C2351   1.402       .  A
C2350      F2355   1.357       .  S
C2351      C2352   1.408       .  A
C2351      F2357   1.358       .  S
C2352      C2353   1.409       .  A
C2353      C2354   1.395       .  A
C2353      F2356   1.358       .  S
C2354      F2358   1.358       .  S
C2361      C2362   1.404       .  A
C2361      C2366   1.394       .  A
C2361      F2379   1.358       .  S
C2362      C2367   1.477       .  S
C2362      C2363   1.404       .  A
C2363      C2364   1.399       .  A
C2363      F2368   1.358       .  S
C2364      C2365   1.410       .  A
C2364      F2380   1.358       .  S
C2365      C2366   1.406       .  A
C2366      F2369   1.358       .  S
C2367      C2370   1.404       .  A
C2367      C2374   1.403       .  A
C2370      C2371   1.395       .  A
C2370      F2375   1.359       .  S
C2371      C2372   1.411       .  A
C2371      F2377   1.359       .  S
C2372      C2373   1.411       .  A
C2373      C2374   1.398       .  A
C2373      F2376   1.358       .  S
C2374      F2378   1.357       .  S
C2381      C2382   1.401       .  A
C2381      C2386   1.393       .  A
C2381      F2399   1.358       .  S
C2382      C2387   1.470       .  S
C2382      C2383   1.401       .  A
C2383      C2384   1.398       .  A
C2383      F2388   1.358       .  S
C2384      C2385   1.414       .  A
C2384      F2400   1.358       .  S
C2385      C2386   1.409       .  A
C2386      F2389   1.357       .  S
C2387      C2390   1.403       .  A
C2387      C2394   1.402       .  A
C2390      C2391   1.399       .  A
C2390      F2395   1.358       .  S
C2391      C2392   1.408       .  A
C2391      F2397   1.357       .  S
C2392      C2393   1.404       .  A
C2393      C2394   1.392       .  A
C2393      F2396   1.357       .  S
C2394      F2398   1.358       .  S
C2401      C2402   1.404       .  A
C2401      C2406   1.401       .  A
C2401      F2419   1.358       .  S
C2402      C2407   1.481       .  S
C2402      C2403   1.405       .  A
C2403      C2404   1.400       .  A
C2403      F2408   1.358       .  S
C2404      C2405   1.407       .  A
C2404      F2420   1.358       .  S
C2405      C2406   1.409       .  A
C2406      F2409   1.358       .  S
C2407      C2410   1.402       .  A
C2407      C2414   1.404       .  A
C2410      C2411   1.396       .  A
C2410      F2415   1.358       .  S
C2411      C2412   1.413       .  A
C2411      F2417   1.358       .  S
C2412      C2413   1.414       .  A
C2413      C2414   1.402       .  A
C2413      F2416   1.357       .  S
C2414      F2418   1.358       .  S
C2421      C2422   1.405       .  A
C2421      C2426   1.404       .  A
C2421      F2439   1.358       .  S
C2422      C2427   1.487       .  S
C2422      C2423   1.405       .  A
C2423      C2424   1.403       .  A
C2423      F2428   1.358       .  S
C2424      C2425   1.410       .  A
C2424      F2440   1.358       .  S
C2425      C2426   1.411       .  A
C2426      F2429   1.358       .  S
C2427      C2430   1.404       .  A
C2427      C2434   1.405       .  A
C2430      C2431   1.403       .  A
C2430      F2435   1.357       .  S
C2431      C2432   1.412       .  A
C2431      F2437   1.358       .  S
C2432      C2433   1.412       .  A
C2433      C2434   1.403       .  A
C2433      F2436   1.358       .  S
C2434      F2438   1.358       .  S
C2441      C2442   1.403       .  A
C2441      C2446   1.392       .  A
C2441      F2459   1.359       .  S
C2442      C2447   1.479       .  S
C2442      C2443   1.406       .  A
C2443      C2444   1.399       .  A
C2443      F2448   1.358       .  S
C2444      C2445   1.411       .  A
C2444      F2460   1.357       .  S
C2445      C2446   1.412       .  A
C2446      F2449   1.357       .  S
C2447      C2450   1.405       .  A
C2447      C2454   1.406       .  A
C2450      C2451   1.398       .  A
C2450      F2455   1.358       .  S
C2451      C2452   1.407       .  A
C2451      F2457   1.358       .  S
C2452      C2453   1.407       .  A
C2453      C2454   1.394       .  A
C2453      F2456   1.359       .  S
C2454      F2458   1.358       .  S
C2461      C2462   1.404       .  A
C2461      C2466   1.402       .  A
C2461      F2479   1.358       .  S
C2462      C2467   1.477       .  S
C2462      C2463   1.403       .  A
C2463      C2464   1.397       .  A
C2463      F2468   1.358       .  S
C2464      C2465   1.409       .  A
C2464      F2480   1.358       .  S
C2465      C2466   1.408       .  A
C2466      F2469   1.357       .  S
C2467      C2470   1.403       .  A
C2467      C2474   1.401       .  A
C2470      C2471   1.402       .  A
C2470      F2475   1.357       .  S
C2471      C2472   1.411       .  A
C2471      F2477   1.357       .  S
C2472      C2473   1.412       .  A
C2473      C2474   1.395       .  A
C2473      F2476   1.357       .  S
C2474      F2478   1.359       .  S
C2481      C2482   1.403       .  A
C2481      C2486   1.396       .  A
C2481      F2499   1.358       .  S
C2482      C2487   1.470       .  S
C2482      C2483   1.405       .  A
C2483      C2484   1.397       .  A
C2483      F2488   1.358       .  S
C2484      C2485   1.403       .  A
C2484      F2500   1.358       .  S
C2485      C2486   1.403       .  A
C2486      F2489   1.358       .  S
C2487      C2490   1.402       .  A
C2487      C2494   1.404       .  A
C2490      C2491   1.395       .  A
C2490      F2495   1.358       .  S
C2491      C2492   1.405       .  A
C2491      F2497   1.358       .  S
C2492      C2493   1.405       .  A
C2493      C2494   1.396       .  A
C2493      F2496   1.358       .  S
C2494      F2498   1.358       .  S
C2501      C2502   1.407       .  A
C2501      C2506   1.402       .  A
C2501      F2519   1.357       .  S
C2502      C2507   1.482       .  S
C2502      C2503   1.403       .  A
C2503      C2504   1.391       .  A
C2503      F2508   1.359       .  S
C2504      C2505   1.413       .  A
C2504      F2520   1.358       .  S
C2505      C2506   1.410       .  A
C2506      F2509   1.357       .  S
C2507      C2510   1.406       .  A
C2507      C2514   1.405       .  A
C2510      C2511   1.393       .  A
C2510      F2515   1.359       .  S
C2511      C2512   1.408       .  A
C2511      F2517   1.358       .  S
C2512      C2513   1.411       .  A
C2513      C2514   1.400       .  A
C2513      F2516   1.358       .  S
C2514      F2518   1.358       .  S
C2521      C2522   1.404       .  A
C2521      C2526   1.396       .  A
C2521      F2539   1.358       .  S
C2522      C2527   1.484       .  S
C2522      C2523   1.404       .  A
C2523      C2524   1.403       .  A
C2523      F2528   1.358       .  S
C2524      C2525   1.415       .  A
C2524      F2540   1.358       .  S
C2525      C2526   1.413       .  A
C2526      F2529   1.358       .  S
C2527      C2530   1.407       .  A
C2527      C2534   1.406       .  A
C2530      C2531   1.404   1_655  A
C2530      F2535   1.358   1_655  S
C2531      C2532   1.408       .  A
C2531      F2537   1.358       .  S
C2532      C2533   1.405   1_455  A
C2533      C2534   1.396       .  A
C2533      F2536   1.358       .  S
C2534      F2538   1.358       .  S
C2541      C2542   1.405       .  A
C2541      C2546   1.402       .  A
C2541      F2559   1.358       .  S
C2542      C2547   1.479       .  S
C2542      C2543   1.405       .  A
C2543      C2544   1.395       .  A
C2543      F2548   1.358       .  S
C2544      C2545   1.403       .  A
C2544      F2560   1.357       .  S
C2545      C2546   1.408       .  A
C2546      F2549   1.358       .  S
C2547      C2550   1.403   1_655  A
C2547      C2554   1.401       .  A
C2550      C2551   1.404       .  A
C2550      F2555   1.358       .  S
C2551      C2552   1.415       .  A
C2551      F2557   1.358       .  S
C2552      C2553   1.413   1_455  A
C2553      C2554   1.395       .  A
C2553      F2556   1.357       .  S
C2554      F2558   1.358       .  S
C2561      C2562   1.404       .  A
C2561      C2566   1.396       .  A
C2561      F2579   1.359       .  S
C2562      C2567   1.474       .  S
C2562      C2563   1.402       .  A
C2563      C2564   1.397       .  A
C2563      F2568   1.357       .  S
C2564      C2565   1.407       .  A
C2564      F2580   1.358       .  S
C2565      C2566   1.409       .  A
C2566      F2569   1.359       .  S
C2567      C2570   1.400       .  A
C2567      C2574   1.403       .  A
C2570      C2571   1.394       .  A
C2570      F2575   1.359       .  S
C2571      C2572   1.413       .  A
C2571      F2577   1.358       .  S
C2572      C2573   1.410       .  A
C2573      C2574   1.400       .  A
C2573      F2576   1.357       .  S
C2574      F2578   1.358       .  S
C2581      C2582   1.400       .  A
C2581      C2586   1.398       .  A
C2581      F2599   1.357       .  S
C2582      C2587   1.464       .  S
C2582      C2583   1.399       .  A
C2583      C2584   1.390       .  A
C2583      F2588   1.359       .  S
C2584      C2585   1.413       .  A
C2584      F2600   1.357       .  S
C2585      C2586   1.409       .  A
C2586      F2589   1.357       .  S
C2587      C2590   1.400       .  A
C2587      C2594   1.402       .  A
C2590      C2591   1.392       .  A
C2590      F2595   1.358       .  S
C2591      C2592   1.406       .  A
C2591      F2597   1.358       .  S
C2592      C2593   1.406       .  A
C2593      C2594   1.398       .  A
C2593      F2596   1.358       .  S
C2594      F2598   1.358       .  S
C2601      C2602   1.404       .  A
C2601      C2606   1.392       .  A
C2601      F2619   1.358       .  S
C2602      C2607   1.474       .  S
C2602      C2603   1.404       .  A
C2603      C2604   1.399       .  A
C2603      F2608   1.358       .  S
C2604      C2605   1.409       .  A
C2604      F2620   1.358       .  S
C2605      C2606   1.406       .  A
C2606      F2609   1.358       .  S
C2607      C2610   1.402       .  A
C2607      C2614   1.403       .  A
C2610      C2611   1.391       .  A
C2610      F2615   1.359       .  S
C2611      C2612   1.409       .  A
C2611      F2617   1.358       .  S
C2612      C2613   1.411       .  A
C2613      C2614   1.400       .  A
C2613      F2616   1.358       .  S
C2614      F2618   1.358       .  S
C2621      C2622   1.400       .  A
C2621      C2626   1.394       .  A
C2621      F2639   1.358       .  S
C2622      C2627   1.472       .  S
C2622      C2623   1.400       .  A
C2623      C2624   1.400       .  A
C2623      F2628   1.358       .  S
C2624      C2625   1.415       .  A
C2624      F2640   1.358       .  S
C2625      C2626   1.413       .  A
C2626      F2629   1.357       .  S
C2627      C2630   1.403       .  A
C2627      C2634   1.405       .  A
C2630      C2631   1.394       .  A
C2630      F2635   1.358       .  S
C2631      C2632   1.403       .  A
C2631      F2637   1.358       .  S
C2632      C2633   1.404       .  A
C2633      C2634   1.401       .  A
C2633      F2636   1.358       .  S
C2634      F2638   1.358       .  S
