geometry optimzed in LAMMPS
_audit_creation_date              2020-11-30 
_audit_creation_method            'lammps2cif' 
_symmetry_space_group_name_H-M    'P1' 
_symmetry_Int_Tables_number       1 
_symmetry_cell_setting            triclinic 
loop_ 
_symmetry_equiv_pos_as_xyz 
  x,y,z 
_cell_length_a                    38.93524484 
_cell_length_b                    39.31516942485231 
_cell_length_c                    27.30958345808955 
_cell_angle_alpha                 90.00805348121585 
_cell_angle_beta                  89.97637370016469 
_cell_angle_gamma                 121.54580923927806 
loop_ 
_atom_site_label 
_atom_site_type_symbol 
_atom_site_fract_x 
_atom_site_fract_y 
_atom_site_fract_z 
_atom_site_charge 
O1          O  0.12409501  0.25870711  0.96451072    -0.85200
O2          O  0.20307153  0.31277696  0.93758170    -0.82200
C3          C  0.23675245  0.34502860  0.93503824     0.98300
O4          O  0.24422757  0.37431008  0.96195020    -0.82300
O5          O  0.19113941  0.39881901  0.93488773    -0.84900
C6          C  0.15787051  0.39698979  0.93017537     1.02800
O7          O  0.12838835  0.37496805  0.95786443    -0.77700
O8          O  0.10097074  0.29513382  0.93724074    -0.77900
C9          C  0.10202957  0.26355351  0.93511983     1.02700
O10         O  0.14550906  0.27802457  0.06403706    -0.85200
O11         O  0.22505915  0.32520060  0.03826325    -0.82300
C12         C  0.23784903  0.35394935  0.06785116     0.98300
O13         O  0.22738869  0.37925835  0.06279667    -0.82300
O14         O  0.18132639  0.41110094  0.03589392    -0.84900
C15         C  0.15099960  0.39524251  0.06382559     1.02800
O16         O  0.12457920  0.35855487  0.05992249    -0.77700
O17         O  0.09177243  0.27838137  0.04061338    -0.77900
C18         C  0.10862345  0.26590529  0.06879434     1.02700
Cr19       Cr  0.17368362  0.29699354  0.00079668     1.93700
Cr20       Cr  0.20761593  0.38688994  0.99873770     1.93200
Cr21       Cr  0.11551056  0.32758129  0.99880893     1.39100
O22         O  0.16549602  0.33721584  0.99918032    -1.23000
O23         O  0.36875102  0.23951638  0.96012535    -0.85200
O24         O  0.28993945  0.18413899  0.93545216    -0.82200
C25         C  0.25906816  0.15010201  0.92824166     0.98300
O26         O  0.25121569  0.12110655  0.95608916    -0.82300
O27         O  0.30561311  0.09791812  0.93418752    -0.84900
C28         C  0.33976245  0.10167163  0.92977666     1.02800
O29         O  0.36848705  0.12471841  0.95761774    -0.77700
O30         O  0.39140856  0.20206710  0.93411281    -0.77900
C31         C  0.39015217  0.23341603  0.93095017     1.02700
O32         O  0.34881174  0.22176061  0.06090180    -0.85200
O33         O  0.26846947  0.17215830  0.03762514    -0.82300
C34         C  0.25647956  0.14325158  0.06705880     0.98300
O35         O  0.26657062  0.11786178  0.05978279    -0.82300
O36         O  0.31572170  0.08870483  0.03521967    -0.84900
C37         C  0.34645239  0.10573367  0.06244414     1.02800
O38         O  0.37157257  0.14274977  0.05894825    -0.77700
O39         O  0.40261429  0.22207003  0.03614875    -0.77900
C40         C  0.38591942  0.23454465  0.06438183     1.02700
Cr41       Cr  0.31960832  0.20087707  0.99834914     1.93700
Cr42       Cr  0.28792776  0.11064980  0.99649024     1.93200
Cr43       Cr  0.37931715  0.17201564  0.99672491     1.39100
O44         O  0.32891347  0.16108331  0.99699622    -1.23000
C45         C  0.49873405  0.46327041  0.24755556     0.02400
C46         C  0.46097557  0.46086192  0.24504719     0.02400
C47         C  0.45955121  0.49630179  0.24278889     0.02400
C48         C  0.99566016  0.03476977  0.24548113     0.02400
C49         C  0.03376771  0.03716478  0.24737087     0.02400
C50         C  0.03504840  0.00148044  0.24916542     0.02400
C51         C  0.37379219  0.00843177  0.19622510     0.03300
C52         C  0.41146989  0.01192531  0.19965806    -0.12900
C53         C  0.41987269  0.99418956  0.23889552     0.00800
C54         C  0.39025149  0.47231045  0.27428979    -0.11400
C55         C  0.35229587  0.46811222  0.27129854     0.03300
C56         C  0.34373597  0.98523357  0.23055439    -0.10800
H57         H  0.43440480  0.02909601  0.17248600     0.08900
H58         H  0.39696405  0.45878500  0.30433512     0.06400
H59         H  0.31528414  0.98390297  0.22820096     0.06200
C60         C  0.12133314  0.48880478  0.20655532     0.03300
C61         C  0.08723721  0.49249065  0.20711917    -0.12900
C62         C  0.07517462  0.50361975  0.24932846     0.00800
C63         C  0.10037080  0.01611795  0.29040638    -0.11400
C64         C  0.13896709  0.02043425  0.28866936     0.03300
C65         C  0.14772860  0.50473385  0.24745664    -0.10800
H66         H  0.06951862  0.48768809  0.17497826     0.08900
H67         H  0.08907331  0.02165022  0.32350410     0.06400
H68         H  0.17531217  0.50481441  0.24692357     0.06200
C69         C  0.14162038  0.12239512  0.22028380     0.03300
C70         C  0.10461918  0.08611726  0.21682944    -0.12900
C71         C  0.07251086  0.07700387  0.24868940     0.00800
C72         C  0.07734656  0.10577089  0.28270126    -0.11400
C73         C  0.11358685  0.14256572  0.28741581     0.03300
C74         C  0.14613445  0.15015176  0.25630090    -0.10800
H75         H  0.10053227  0.06542484  0.18805089     0.08900
H76         H  0.05220092  0.09898575  0.30548569     0.06400
H77         H  0.17513838  0.17750679  0.25988669     0.06200
C78         C  0.48227529  0.12007525  0.28952082     0.03300
C79         C  0.47814982  0.08220156  0.28654191    -0.12900
C80         C  0.49356714  0.07207445  0.24588974     0.00800
C81         C  0.00946207  0.09866242  0.20632589    -0.11400
C82         C  0.01675706  0.13778318  0.20949890     0.03300
C83         C  0.50353159  0.14800173  0.25225982    -0.10800
H84         H  0.46426053  0.06120967  0.31641787     0.08900
H85         H  0.01576381  0.08784016  0.17348969     0.06400
H86         H  0.50900624  0.17776355  0.25674220     0.06200
C87         C  0.37911570  0.35592535  0.28443841     0.03300
C88         C  0.35037195  0.34592556  0.24718249    -0.12900
C89         C  0.35698244  0.37341677  0.21023853     0.00800
C90         C  0.39369257  0.40993045  0.20832449    -0.11400
C91         C  0.42253647  0.42084417  0.24556715     0.03300
C92         C  0.41460854  0.39385785  0.28387344    -0.10800
H93         H  0.32268863  0.31700363  0.24697368     0.08900
H94         H  0.39927400  0.43037893  0.17849732     0.06400
H95         H  0.43631774  0.40247451  0.31326266     0.06200
C96         C  0.02902096  0.38669319  0.27166007     0.03300
C97         C  0.02203753  0.41800508  0.27888018    -0.12900
C98         C  0.00031812  0.42584403  0.24453711     0.00800
C99         C  0.48001559  0.39805142  0.20685974    -0.11400
C100        C  0.48499963  0.36547321  0.19888963     0.03300
C101        C  0.01296340  0.36287343  0.22945666    -0.10800
H102        H  0.03388988  0.43684339  0.31094923     0.08900
H103        H  0.46040714  0.40263664  0.18432183     0.06400
H104        H  0.02220534  0.34200473  0.22106354     0.06200
O105        O  0.29928880  0.10823465  0.43990271    -0.85200
O106        O  0.37821207  0.13254248  0.46517555    -0.82200
C107        C  0.40323672  0.16164151  0.43864109     0.98300
O108        O  0.40701448  0.19540552  0.44249693    -0.82300
O109        O  0.38392029  0.24938193  0.46593817    -0.84900
C110        C  0.35598905  0.24250012  0.43627738     1.02800
O111        O  0.32172091  0.21132481  0.44037348    -0.77700
O112        O  0.26372057  0.13384953  0.46282840    -0.77900
C113        C  0.26845973  0.11078978  0.43486791     1.02700
O114        O  0.27738844  0.09948854  0.54198871    -0.85200
O115        O  0.35745480  0.12859557  0.56637381    -0.82300
C116        C  0.39500525  0.15238874  0.57069661     0.98300
O117        O  0.41335273  0.18222066  0.54279689    -0.82300
O118        O  0.38443143  0.22955806  0.56751914    -0.84900
C119        C  0.36091319  0.24207736  0.57315460     1.02800
O120        O  0.33239361  0.23226786  0.54315134    -0.77700
O121        O  0.28000094  0.15402863  0.56479854    -0.77900
C122        C  0.26493188  0.11708742  0.56913281     1.02700
Cr123      Cr  0.32912688  0.12116298  0.50331988     1.93700
Cr124      Cr  0.39286762  0.21112565  0.50447689     1.93200
Cr125      Cr  0.30263006  0.18206489  0.50258927     1.39100
O126        O  0.34156552  0.17135485  0.50274598    -1.23000
O127        O  0.24139897  0.37200704  0.53564553    -0.85200
O128        O  0.18213128  0.29392769  0.55721526    -0.82200
C129        C  0.14676347  0.26425039  0.56273290     0.98300
O130        O  0.11821528  0.26045346  0.53626192    -0.82300
O131        O  0.10446990  0.32066991  0.56076129    -0.84900
C132        C  0.10974308  0.35502898  0.56491907     1.02800
O133        O  0.13123314  0.38205835  0.53441781    -0.77700
O134        O  0.20788823  0.39986537  0.56016758    -0.77900
C135        C  0.23719189  0.39479982  0.56467150     1.02700
O136        O  0.22273631  0.35432206  0.43243613    -0.85200
O137        O  0.16929262  0.27617837  0.45427285    -0.82300
C138        C  0.13906218  0.26534273  0.42702693     0.98300
O139        O  0.11561116  0.27788826  0.43417992    -0.82300
O140        O  0.09470288  0.33236147  0.45739383    -0.84900
C141        C  0.11501165  0.36096277  0.42780129     1.02800
O142        O  0.15239507  0.38400908  0.43375211    -0.77700
O143        O  0.23030483  0.41010935  0.45987198    -0.77900
C144        C  0.23786085  0.39138522  0.42860831     1.02700
Cr145      Cr  0.20116905  0.32530062  0.49509947     1.93700
Cr146      Cr  0.11226611  0.30086588  0.49735625     1.93200
Cr147      Cr  0.17909230  0.38976922  0.49714917     1.39100
O148        O  0.16415777  0.33846120  0.49694322    -1.23000
C149        C  0.50126198  0.46236118  0.75902904     0.02400
C150        C  0.46277623  0.45869829  0.76072062     0.02400
C151        C  0.46038292  0.49362627  0.75967992     0.02400
C152        C  0.99636580  0.03195697  0.75704322     0.02400
C153        C  0.03479246  0.03588659  0.75306133     0.02400
C154        C  0.03713775  0.00089678  0.75586185     0.02400
C155        C  0.12515468  0.48817785  0.79127086     0.03300
C156        C  0.15196822  0.50852610  0.75270638    -0.12900
C157        C  0.14160578  0.02587361  0.71495952     0.00800
C158        C  0.10418056  0.02306974  0.71599964    -0.11400
C159        C  0.07744464  0.50384716  0.75486138     0.03300
C160        C  0.08823911  0.48669384  0.79260907    -0.10800
H161        H  0.18118885  0.51135607  0.75242353     0.08900
H162        H  0.09587063  0.03554487  0.68619376     0.06400
H163        H  0.06714524  0.47097633  0.82205958     0.06200
C164        C  0.37359235  0.00786344  0.79723899     0.03300
C165        C  0.41026023  0.00889225  0.79789306    -0.12900
C166        C  0.41955512  0.98991975  0.76096257     0.00800
C167        C  0.39103013  0.46928135  0.72344776    -0.11400
C168        C  0.35446930  0.46890089  0.72194417     0.03300
C169        C  0.34596142  0.98767883  0.75944909    -0.10800
H170        H  0.43172085  0.02482141  0.82694286     0.08900
H171        H  0.39797608  0.45510735  0.69432271     0.06400
H172        H  0.31827948  0.98796315  0.75824842     0.06200
C173        C  0.48122515  0.11426836  0.71238864     0.03300
C174        C  0.49731939  0.14095473  0.75245500    -0.12900
C175        C  0.01176904  0.13219850  0.79522059     0.00800
C176        C  0.00710464  0.09411032  0.79783186    -0.11400
C177        C  0.49446928  0.06874231  0.75689208     0.03300
C178        C  0.48283341  0.07951111  0.71422504    -0.10800
H179        H  0.49859758  0.16889693  0.75004596     0.08900
H180        H  0.01314940  0.08345347  0.83107962     0.06400
H181        H  0.47653915  0.06102258  0.68233416     0.06200
C182        C  0.11448640  0.14276935  0.70965142     0.03300
C183        C  0.07904785  0.10434112  0.71119590    -0.12900
C184        C  0.07290754  0.07687262  0.74896186     0.00800
C185        C  0.10382404  0.08811254  0.78334926    -0.11400
C186        C  0.14018687  0.12512443  0.78089708     0.03300
C187        C  0.14501482  0.15253364  0.74437197    -0.10800
H188        H  0.05635233  0.09605814  0.68324016     0.08900
H189        H  0.09951543  0.06774083  0.81276169     0.06400
H190        H  0.17294099  0.18120490  0.74214026     0.06200
C191        C  0.02491719  0.38421381  0.71733641     0.03300
C192        C  0.02362080  0.41915914  0.71995250    -0.12900
C193        C  0.00384519  0.42554102  0.75858115     0.00800
C194        C  0.48564534  0.39643986  0.79551290    -0.11400
C195        C  0.48507758  0.36044363  0.79249672     0.03300
C196        C  0.00500640  0.35475305  0.75344951    -0.10800
H197        H  0.03856387  0.44194365  0.69222073     0.08900
H198        H  0.47029433  0.40110520  0.82541608     0.06400
H199        H  0.00486262  0.32716425  0.75107655     0.06200
C200        C  0.38767396  0.34786111  0.73703449     0.03300
C201        C  0.36474755  0.33755630  0.78036189    -0.12900
C202        C  0.36801649  0.36732317  0.81209295     0.00800
C203        C  0.39948477  0.40717152  0.80508723    -0.11400
C204        C  0.42535226  0.41782263  0.76453822     0.03300
C205        C  0.41740771  0.38845161  0.72928822    -0.10800
H206        H  0.34220535  0.30674465  0.78794155     0.08900
H207        H  0.40338144  0.43005092  0.83053655     0.06400
H208        H  0.43534710  0.39749076  0.69615500     0.06200
C209        C  0.12054483  0.17306960  0.67166133     0.00000
C210        C  0.12678133  0.16724354  0.62239124    -0.11900
C211        C  0.13577073  0.19671903  0.58663269     0.02200
C212        C  0.13839969  0.23281315  0.59967310    -0.00100
C213        C  0.13168786  0.23840156  0.64862806    -0.11800
C214        C  0.12293720  0.20917106  0.68440043     0.02100
H215        H  0.12559796  0.14001759  0.61204111     0.15100
H216        H  0.13308557  0.26567862  0.65895337     0.15100
C217        C  0.11584906  0.21688262  0.73381220     0.36700
C218        C  0.14330057  0.18981641  0.53696447     0.36600
N219        N  0.11022555  0.22385795  0.77309401    -0.43600
N220        N  0.14963436  0.18442628  0.49720602    -0.43600
C221        C  0.04753323  0.37841340  0.67750577     0.00000
C222        C  0.07283990  0.36413104  0.68989311    -0.11900
C223        C  0.09374965  0.35680884  0.65385920     0.02200
C224        C  0.08942090  0.36358237  0.60425980    -0.00100
C225        C  0.06563678  0.37941011  0.59179502    -0.11800
C226        C  0.04456041  0.38668404  0.62770972     0.02100
H227        H  0.07676561  0.35919425  0.72803211     0.15100
H228        H  0.06262245  0.38506182  0.55361304     0.15100
C229        C  0.01852929  0.40051326  0.61182186     0.36700
C230        C  0.12155312  0.34499913  0.66890636     0.36600
N231        N  0.99757838  0.41147074  0.59909293    -0.43600
N232        N  0.14439996  0.33632310  0.68120859    -0.43600
C233        C  0.26726622  0.41514480  0.60415823     0.00000
C234        C  0.28123388  0.39342381  0.62837510    -0.11900
C235        C  0.30941984  0.41049517  0.66609046     0.02200
C236        C  0.32507987  0.45030169  0.68053557    -0.00100
C237        C  0.31130925  0.47242893  0.65582575    -0.11800
C238        C  0.28293061  0.45531588  0.61767203     0.02100
H239        H  0.26928077  0.36244007  0.61852840     0.15100
H240        H  0.32264304  0.00254891  0.66667638     0.15100
C241        C  0.27255503  0.48019842  0.59071526     0.36700
C242        C  0.31937257  0.38519838  0.69136658     0.36600
N243        N  0.26466231  0.50010531  0.56819902    -0.43600
N244        N  0.32623554  0.36369148  0.71122689    -0.43600
C245        C  0.41836861  0.14364725  0.60576030     0.00000
C246        C  0.40533976  0.10371029  0.61484212    -0.11900
C247        C  0.42736784  0.09315871  0.64482568     0.02200
C248        C  0.46207773  0.12307062  0.67021412    -0.00100
C249        C  0.47645970  0.16318213  0.65807318    -0.11800
C250        C  0.45523363  0.17363023  0.62635360     0.02100
H251        H  0.37867146  0.08039827  0.59629761     0.15100
H252        H  0.50461485  0.18686487  0.67330641     0.15100
C253        C  0.47194612  0.21548678  0.61668206     0.36700
C254        C  0.41546199  0.05188602  0.64287749     0.36600
N255        N  0.48606205  0.24918527  0.60918456    -0.43600
N256        N  0.40672105  0.01919283  0.63704543    -0.43600
C257        C  0.17093388  0.04793996  0.67517855     0.00000
C258        C  0.18235174  0.08753537  0.66564569    -0.11900
C259        C  0.21213133  0.11049960  0.63088619     0.02200
C260        C  0.23182821  0.09395558  0.60524472    -0.00100
C261        C  0.21888967  0.05371882  0.61363287    -0.11800
C262        C  0.18878062  0.03070755  0.64788765     0.02100
H263        H  0.16826251  0.10076313  0.68595233     0.15100
H264        H  0.23232759  0.04002959  0.59332138     0.15100
C265        C  0.17747242  0.48982262  0.65388093     0.36700
C266        C  0.22051550  0.15033577  0.62176221     0.36600
N267        N  0.16781895  0.45669858  0.65821287    -0.43600
N268        N  0.22651170  0.18199880  0.61449461    -0.43600
C269        C  0.37931338  0.31769106  0.69770530     0.00000
C270        C  0.41228537  0.32166852  0.67123991    -0.11900
C271        C  0.40675968  0.29800613  0.63023497     0.02200
C272        C  0.36760541  0.26888078  0.61491161    -0.00100
C273        C  0.33457171  0.26392207  0.64141622    -0.11800
C274        C  0.33979243  0.28739467  0.68269582     0.02100
H275        H  0.44269971  0.34388163  0.68203995     0.15100
H276        H  0.30446194  0.24110761  0.63018265     0.15100
C277        C  0.30342442  0.27909996  0.70742911     0.36700
C278        C  0.44163398  0.30563594  0.60248184     0.36600
N279        N  0.27351260  0.27115101  0.72636542    -0.43600
N280        N  0.46879518  0.31117220  0.57894086    -0.43600
C281        C  0.09460531  0.36793245  0.38651051     0.00000
C282        C  0.06271789  0.33509707  0.36244887    -0.11900
C283        C  0.04162566  0.34013669  0.32433096     0.02200
C284        C  0.05278747  0.37909590  0.30873215    -0.00100
C285        C  0.08584994  0.41188294  0.33198441    -0.11800
C286        C  0.10616095  0.40670346  0.37087426     0.02100
H287        H  0.05382759  0.30519130  0.37395465     0.15100
H288        H  0.09529303  0.44189738  0.32074478     0.15100
C289        C  0.13654013  0.44160372  0.39679114     0.36700
C290        C  0.50727099  0.30444943  0.30465296     0.36600
N291        N  0.16044993  0.46909130  0.41865881    -0.43600
N292        N  0.47971075  0.27526355  0.29004239    -0.43600
C293        C  0.37269102  0.32688722  0.32379878     0.00000
C294        C  0.40483714  0.32208872  0.33718699    -0.11900
C295        C  0.40046344  0.29568606  0.37455456     0.02200
C296        C  0.36276700  0.27190579  0.39774726    -0.00100
C297        C  0.33068141  0.27661330  0.38442877    -0.11800
C298        C  0.33559392  0.30447711  0.34893061     0.02100
H299        H  0.43361348  0.33916836  0.31853683     0.15100
H300        H  0.30195664  0.25944633  0.40316607     0.15100
C301        C  0.30293837  0.31125216  0.34161256     0.36700
C302        C  0.43505563  0.29364451  0.38870781     0.36600
N303        N  0.27685635  0.31686944  0.33609416    -0.43600
N304        N  0.46242405  0.29191623  0.40152577    -0.43600
C305        C  0.46369894  0.13082854  0.33039056     0.00000
C306        C  0.48627416  0.16729858  0.35613598    -0.11900
C307        C  0.46783950  0.17897755  0.39165333     0.02200
C308        C  0.42620243  0.15392737  0.40168846    -0.00100
C309        C  0.40452419  0.11804930  0.37683376    -0.11800
C310        C  0.42236260  0.10678026  0.34169786     0.02100
H311        H  0.51819676  0.18657146  0.34862442     0.15100
H312        H  0.37242164  0.09883865  0.38394913     0.15100
C313        C  0.39467269  0.07178935  0.31583484     0.36700
C314        C  0.49237796  0.21535893  0.41883460     0.36600
N315        N  0.36729629  0.04395390  0.29938202    -0.43600
N316        N  0.51210471  0.24429066  0.44108989    -0.43600
C317        C  0.11720930  0.17332635  0.32364039     0.00000
C318        C  0.14249272  0.21386365  0.31126359    -0.11900
C319        C  0.14939861  0.24432619  0.34371798     0.02200
C320        C  0.12958967  0.23501098  0.38917567    -0.00100
C321        C  0.10255011  0.19517018  0.40100899    -0.11800
C322        C  0.09637632  0.16431087  0.36959474     0.02100
H323        H  0.15730094  0.22220050  0.27590828     0.15100
H324        H  0.08730538  0.18805905  0.43619041     0.15100
C325        C  0.06961948  0.12450876  0.38810258     0.36700
C326        C  0.17747436  0.28477037  0.32914906     0.36600
N327        N  0.04774070  0.09296458  0.40375862    -0.43600
N328        N  0.20050249  0.31659805  0.31558559    -0.43600
C329        C  0.17099322  0.04189736  0.32875329     0.00000
C330        C  0.20176621  0.03321423  0.33607499    -0.11900
C331        C  0.23388847  0.05485651  0.36949438     0.02200
C332        C  0.23635328  0.08646189  0.39735657    -0.00100
C333        C  0.20561227  0.09450961  0.39106721    -0.11800
C334        C  0.17362399  0.07295170  0.35842086     0.02100
H335        H  0.20057275  0.00852830  0.31698513     0.15100
H336        H  0.20614510  0.11804589  0.41247374     0.15100
C337        C  0.14373385  0.08359314  0.35929073     0.36700
C338        C  0.26302478  0.04295522  0.37514174     0.36600
N339        N  0.11961204  0.09195390  0.36358816    -0.43600
N340        N  0.28616162  0.03312473  0.37957504    -0.43600
C341        C  0.26618005  0.41335310  0.38885509     0.00000
C342        C  0.30714743  0.43707324  0.39981826    -0.11900
C343        C  0.33551520  0.45665455  0.36265479     0.02200
C344        C  0.32304876  0.45018358  0.31278508    -0.00100
C345        C  0.28144746  0.42799946  0.30266013    -0.11800
C346        C  0.25310207  0.41128247  0.34040840     0.02100
H347        H  0.31692113  0.44070708  0.43768206     0.15100
H348        H  0.27077518  0.42409139  0.26532261     0.15100
C349        C  0.21105849  0.39473743  0.32901597     0.36700
C350        C  0.37642965  0.48501172  0.37758576     0.36600
N351        N  0.17750526  0.38195229  0.31953195    -0.43600
N352        N  0.40906076  0.50783966  0.38989652    -0.43600
C353        C  0.36512707  0.03091287  0.83320000     0.00000
C354        C  0.39162386  0.07236436  0.83583948    -0.11900
C355        C  0.38293720  0.09587330  0.86570161     0.02200
C356        C  0.34704276  0.07804810  0.89359184    -0.00100
C357        C  0.32051966  0.03655711  0.89109800    -0.11800
C358        C  0.32943399  0.01290786  0.86155787     0.02100
H359        H  0.41873808  0.08651849  0.81361325     0.15100
H360        H  0.29352575  0.02245961  0.91352962     0.15100
C361        C  0.30236553  0.97011109  0.86231541     0.36700
C362        C  0.41067442  0.13851929  0.86612347     0.36600
N363        N  0.28132160  0.43584889  0.86201007    -0.43600
N364        N  0.43237099  0.17277666  0.86697113    -0.43600
C365        C  0.35364376  0.08125301  0.09687844     0.00000
C366        C  0.35645368  0.04930027  0.07865032    -0.11900
C367        C  0.36311514  0.02518395  0.11033396     0.02200
C368        C  0.36721114  0.03312263  0.16093297    -0.00100
C369        C  0.36370263  0.06467236  0.17894532    -0.11800
C370        C  0.35656223  0.08838418  0.14755747     0.02100
H371        H  0.35333869  0.04316127  0.03965481     0.15100
H372        H  0.36607951  0.07072340  0.21765016     0.15100
C373        C  0.34953731  0.11795759  0.16849096     0.36700
C374        C  0.36411726  0.99160918  0.09071058     0.36600
N375        N  0.34332685  0.14123858  0.18535280    -0.43600
N376        N  0.36469412  0.96443752  0.07548856    -0.43600
C377        C  0.23069167  0.14448239  0.88821339     0.00000
C378        C  0.22131297  0.17402993  0.88024321    -0.11900
C379        C  0.19247569  0.16877251  0.84529023     0.02200
C380        C  0.17304556  0.13381182  0.81639101    -0.00100
C381        C  0.18353397  0.10494460  0.82335087    -0.11800
C382        C  0.21175271  0.10977117  0.85883208     0.02100
H383        H  0.23535429  0.20065141  0.90285210     0.15100
H384        H  0.16925083  0.07821586  0.80113956     0.15100
C385        C  0.22134345  0.07903795  0.86326114     0.36700
C386        C  0.18135324  0.19834412  0.84257491     0.36600
N387        N  0.22883402  0.05424397  0.86627919    -0.43600
N388        N  0.17226194  0.22198076  0.84098544    -0.43600
C389        C  0.41537963  0.26474090  0.89496503     0.00000
C390        C  0.44260444  0.30340492  0.91217825    -0.11900
C391        C  0.46624730  0.33469607  0.87968703     0.02200
C392        C  0.46196897  0.32781209  0.82863105    -0.00100
C393        C  0.43462138  0.28895081  0.81149683    -0.11800
C394        C  0.41163962  0.25746950  0.84417053     0.02100
H395        H  0.44574767  0.30904316  0.95131731     0.15100
H396        H  0.43066861  0.28331421  0.77240133     0.15100
C397        C  0.38312741  0.21842614  0.82482628     0.36700
C398        C  0.49565574  0.37315993  0.89975220     0.36600
N399        N  0.36019646  0.18708514  0.80950564    -0.43600
N400        N  0.01928612  0.40402202  0.91564651    -0.43600
C401        C  0.22951042  0.13915350  0.10926371     0.00000
C402        C  0.21630879  0.16633111  0.11353708    -0.11900
C403        C  0.19010598  0.16309066  0.15128341     0.02200
C404        C  0.17456493  0.13092492  0.18465419    -0.00100
C405        C  0.18894405  0.10478680  0.18187251    -0.11800
C406        C  0.21710547  0.10947003  0.14597385     0.02100
H407        H  0.22658791  0.19050592  0.08739011     0.15100
H408        H  0.17870073  0.08107388  0.20858835     0.15100
C409        C  0.23486194  0.08530094  0.14971186     0.36700
C410        C  0.17978079  0.19330359  0.15498381     0.36600
N411        N  0.25056710  0.06724847  0.15264100    -0.43600
N412        N  0.17224133  0.21801820  0.15865966    -0.41600
C413        C  0.41107648  0.26717629  0.09841844     0.00000
C414        C  0.41610928  0.30441069  0.08956765    -0.11900
C415        C  0.44039190  0.33724588  0.11971118     0.02200
C416        C  0.46015904  0.33296322  0.16147218    -0.00100
C417        C  0.45469670  0.29474713  0.16905311    -0.11800
C418        C  0.43188324  0.26277400  0.13725081     0.02100
H419        H  0.40111153  0.30793131  0.05820013     0.15100
H420        H  0.46766372  0.28886822  0.20017570     0.15100
C421        C  0.43101460  0.22601082  0.14498232     0.36700
C422        C  0.44363393  0.37389756  0.10432486     0.36600
N423        N  0.43150016  0.19714560  0.15103899    -0.43600
N424        N  0.44499785  0.40248242  0.09074039    -0.43600
C425        C  0.03254052  0.16368012  0.83502538     0.00000
C426        C  0.02319332  0.19386027  0.84054066    -0.11900
C427        C  0.04497398  0.22672807  0.87211282     0.02200
C428        C  0.07735985  0.23046249  0.89972313    -0.00100
C429        C  0.08580670  0.19994905  0.89587275    -0.11800
C430        C  0.06399479  0.16699344  0.86515678     0.02100
H431        H  0.49845237  0.19209272  0.82042168     0.15100
H432        H  0.10999944  0.20155481  0.91748797     0.15100
C433        C  0.07537621  0.13762433  0.86787591     0.36700
C434        C  0.03264008  0.25545347  0.87606765     0.36600
N435        N  0.08484157  0.11453002  0.87382976    -0.43600
N436        N  0.02254034  0.27831243  0.87929951    -0.43600
C437        C  0.03857542  0.16871002  0.16971778     0.00000
C438        C  0.03017195  0.19947216  0.16373247    -0.11900
C439        C  0.05270319  0.23175184  0.13186090     0.02200
C440        C  0.08426772  0.23378118  0.10432173    -0.00100
C441        C  0.09150000  0.20267845  0.10784731    -0.11800
C442        C  0.06906992  0.17026655  0.13909585     0.02100
H443        H  0.00571814  0.19856686  0.18376412     0.15100
H444        H  0.11444143  0.20318013  0.08467522     0.15100
C445        C  0.07780224  0.13905843  0.13517913     0.36700
C446        C  0.04378417  0.26306281  0.12941332     0.36600
N447        N  0.08483209  0.11429616  0.12824431    -0.43600
N448        N  0.03684460  0.28828908  0.12750657    -0.43600
C449        C  0.15294599  0.42234370  0.89433724     0.00000
C450        C  0.13857499  0.44637600  0.91134907    -0.11900
C451        C  0.13020551  0.46877307  0.87893870     0.02200
C452        C  0.13520616  0.46656304  0.82799420    -0.00100
C453        C  0.15006237  0.44275825  0.81118186    -0.11800
C454        C  0.15916889  0.42101737  0.84378267     0.02100
H455        H  0.13396125  0.44771126  0.95031906     0.15100
H456        H  0.15367936  0.44033742  0.77219839     0.15100
C457        C  0.17262230  0.39589252  0.82413860     0.36700
C458        C  0.11765666  0.49450284  0.89921442     0.36600
N459        N  0.18327871  0.37577153  0.80790920    -0.43600
N460        N  0.10752740  0.51502110  0.91561422    -0.43600
C461        C  0.33442187  0.35784726  0.84646362     0.00000
C462        C  0.29495934  0.33853617  0.82761256    -0.11900
C463        C  0.26266235  0.33379467  0.85560391     0.02200
C464        C  0.26935596  0.34810990  0.90398082    -0.00100
C465        C  0.30844357  0.36609662  0.92371491    -0.11800
C466        C  0.34082187  0.37083341  0.89559319     0.02100
H467        H  0.28941277  0.32854223  0.79002949     0.15100
H468        H  0.31366823  0.37635179  0.96140189     0.15100
C469        C  0.37991598  0.38804903  0.91836110     0.36700
C470        C  0.22374149  0.31696934  0.83253894     0.36600
N471        N  0.41114292  0.40168590  0.93686640    -0.43600
N472        N  0.19272551  0.30375644  0.81363229    -0.43600
C473        C  0.12910389  0.46737294  0.16520782     0.00000
C474        C  0.16863288  0.47570587  0.15677637    -0.11900
C475        C  0.17692074  0.45407822  0.12274512     0.02200
C476        C  0.14496273  0.42046441  0.09908770    -0.00100
C477        C  0.10593095  0.41248953  0.10584172    -0.11800
C478        C  0.09817418  0.43681529  0.13538355     0.02100
H479        H  0.19380823  0.49992969  0.17560144     0.15100
H480        H  0.08152157  0.38875675  0.08468042     0.15100
C481        C  0.05990969  0.43269018  0.12670330     0.36700
C482        C  0.21854942  0.46765916  0.11237853     0.36600
N483        N  0.03027638  0.43076065  0.11587581    -0.43600
N484        N  0.25194945  0.47899664  0.10363896    -0.43600
C485        C  0.26671348  0.35797216  0.10647857     0.00000
C486        C  0.28566983  0.33580924  0.10168568    -0.11900
C487        C  0.31336860  0.33859644  0.13657469     0.02200
C488        C  0.32459104  0.36573720  0.17545477    -0.00100
C489        C  0.30445831  0.38628352  0.18175488    -0.11800
C490        C  0.27492035  0.38180620  0.14865554     0.02100
H491        H  0.27847437  0.31568165  0.07098439     0.15100
H492        H  0.31076049  0.40456878  0.21386071     0.15100
C493        C  0.25088945  0.39849233  0.16177972     0.36700
C494        C  0.32794560  0.31170358  0.13347645     0.36600
N495        N  0.23090895  0.41072864  0.17388227    -0.43600
N496        N  0.33828496  0.28899671  0.13214482    -0.43600
O497        O  0.12342924  0.75830489  0.96424517    -0.85200
O498        O  0.20255057  0.81212127  0.93768576    -0.82200
C499        C  0.23622859  0.84437973  0.93514947     0.98300
O500        O  0.24361126  0.87372294  0.96188597    -0.82300
O501        O  0.19056414  0.89830702  0.93455440    -0.84900
C502        C  0.15737577  0.89666064  0.92990818     1.02800
O503        O  0.12786020  0.87465375  0.95754603    -0.77700
O504        O  0.10053756  0.79487565  0.93673392    -0.77900
C505        C  0.10160929  0.76330503  0.93460750     1.02700
O506        O  0.14452036  0.77755143  0.06389667    -0.85200
O507        O  0.22418070  0.82458233  0.03850491    -0.82300
C508        C  0.23705815  0.85346858  0.06790014     0.98300
O509        O  0.22666462  0.87881163  0.06263322    -0.82300
O510        O  0.18062717  0.91061136  0.03546192    -0.84900
C511        C  0.15025372  0.89480129  0.06332344     1.02800
O512        O  0.12381753  0.85810922  0.05948896    -0.77700
O513        O  0.09087128  0.77787126  0.04004403    -0.77900
C514        C  0.10759391  0.76534437  0.06835877     1.02700
Cr515      Cr  0.17292085  0.79645824  0.00077266     1.93700
Cr516      Cr  0.20696429  0.88637999  0.99848003     1.93200
Cr517      Cr  0.11485157  0.82717935  0.99837384     1.39100
O518        O  0.16481865  0.83673643  0.99893967    -1.23000
O519        O  0.36913170  0.73940381  0.96076726    -0.85200
O520        O  0.29037822  0.68411989  0.93572707    -0.82200
C521        C  0.25947377  0.65011827  0.92843416     0.98300
O522        O  0.25147562  0.62110673  0.95634572    -0.82300
O523        O  0.30572409  0.59766891  0.93461693    -0.84900
C524        C  0.33989033  0.60146005  0.93013724     1.02800
O525        O  0.36863132  0.62449698  0.95796260    -0.77700
O526        O  0.39178958  0.70197860  0.93472166    -0.77900
C527        C  0.39052181  0.73332802  0.93156857     1.02700
O528        O  0.34897756  0.72149248  0.06139704    -0.85200
O529        O  0.26865578  0.67205289  0.03780919    -0.82300
C530        C  0.25656376  0.64317632  0.06730535     0.98300
O531        O  0.26662256  0.61773740  0.06018194    -0.82300
O532        O  0.31561447  0.58830956  0.03561555    -0.84900
C533        C  0.34640341  0.60515939  0.06275466     1.02800
O534        O  0.37162558  0.64217536  0.05936307    -0.77700
O535        O  0.40278850  0.72167339  0.03693360    -0.77900
C536        C  0.38607355  0.73424397  0.06500342     1.02700
Cr537      Cr  0.31989900  0.70072711  0.99875801     1.93700
Cr538      Cr  0.28802360  0.61046932  0.99688196     1.93200
Cr539      Cr  0.37950167  0.67170694  0.99726562     1.39100
O540        O  0.32911691  0.66086528  0.99745485    -1.23000
C541        C  0.49839323  0.96351431  0.24760598     0.02400
C542        C  0.46072647  0.96132004  0.24509235     0.02400
C543        C  0.45951411  0.99687926  0.24293999     0.02400
C544        C  0.99553525  0.53429325  0.24526029     0.02400
C545        C  0.03373493  0.53692183  0.24723028     0.02400
C546        C  0.03523901  0.50136030  0.24916162     0.02400
C547        C  0.37361498  0.50732100  0.19584459     0.03300
C548        C  0.41131102  0.51088277  0.19925820    -0.12900
C549        C  0.41985100  0.49341050  0.23867181     0.00800
C550        C  0.39015467  0.97297103  0.27437536    -0.11400
C551        C  0.35221487  0.96884195  0.27137660     0.03300
C552        C  0.34368985  0.48432275  0.23039211    -0.10800
H553        H  0.43418272  0.52796732  0.17198553     0.08900
H554        H  0.39676247  0.95929363  0.30433361     0.06400
H555        H  0.31522263  0.48296775  0.22809283     0.06200
C556        C  0.12079466  0.98837355  0.20620516     0.03300
C557        C  0.08677186  0.99220089  0.20692272    -0.12900
C558        C  0.07489689  0.00347209  0.24919069     0.00800
C559        C  0.10051934  0.51632867  0.29063929    -0.11400
C560        C  0.13918124  0.52083083  0.28904211     0.03300
C561        C  0.14726145  0.00417545  0.24706605    -0.10800
H562        H  0.06898535  0.98742984  0.17485953     0.08900
H563        H  0.08910239  0.52179795  0.32368360     0.06400
H564        H  0.17472443  0.00405234  0.24650319     0.06200
C565        C  0.14129381  0.62262623  0.21987839     0.03300
C566        C  0.10446102  0.58616636  0.21657733    -0.12900
C567        C  0.07232419  0.57688962  0.24844936     0.00800
C568        C  0.07693857  0.60563487  0.28235183    -0.11400
C569        C  0.11297592  0.64262848  0.28692734     0.03300
C570        C  0.14556597  0.65044228  0.25570946    -0.10800
H571        H  0.10053405  0.56544258  0.18792037     0.08900
H572        H  0.05174605  0.59867344  0.30510372     0.06400
H573        H  0.17443120  0.67797635  0.25913590     0.06200
C574        C  0.48142556  0.61925969  0.28888694     0.03300
C575        C  0.47761083  0.58151539  0.28608955    -0.12900
C576        C  0.49314940  0.57144548  0.24549846     0.00800
C577        C  0.00883005  0.59792563  0.20580369    -0.11400
C578        C  0.01577980  0.63692894  0.20876132     0.03300
C579        C  0.50243503  0.64710413  0.25145556    -0.10800
H580        H  0.46391016  0.56060631  0.31607679     0.08900
H581        H  0.01523442  0.58711028  0.17303985     0.06400
H582        H  0.50767828  0.67678987  0.25579382     0.06200
C583        C  0.37860437  0.85658624  0.28484748     0.03300
C584        C  0.35002135  0.84645089  0.24732215    -0.12900
C585        C  0.35668778  0.87386502  0.21021877     0.00800
C586        C  0.39338630  0.91042115  0.20833752    -0.11400
C587        C  0.42217135  0.92138966  0.24567250     0.03300
C588        C  0.41406773  0.89457060  0.28423206    -0.10800
H589        H  0.32243238  0.81746468  0.24694172     0.08900
H590        H  0.39902245  0.93083777  0.17845156     0.06400
H591        H  0.43569351  0.90336729  0.31374753     0.06200
C592        C  0.02831242  0.88684595  0.27248514     0.03300
C593        C  0.02135934  0.91817999  0.27945306    -0.12900
C594        C  0.99975740  0.92597713  0.24488477     0.00800
C595        C  0.47951424  0.89811960  0.20724930    -0.11400
C596        C  0.48448959  0.86550025  0.19951864     0.03300
C597        C  0.01237336  0.86296121  0.23032618    -0.10800
H598        H  0.03319951  0.93709989  0.31145835     0.08900
H599        H  0.45995765  0.90271199  0.18455229     0.06400
H600        H  0.02163937  0.84206314  0.22222138     0.06200
O601        O  0.29915336  0.60866735  0.44020437    -0.85200
O602        O  0.37794077  0.63242530  0.46499806    -0.82200
C603        C  0.40288928  0.66136809  0.43822876     0.98300
O604        O  0.40681454  0.69521590  0.44201678    -0.82300
O605        O  0.38427589  0.74969201  0.46584919    -0.84900
C606        C  0.35620377  0.74303428  0.43653008     1.02800
O607        O  0.32192532  0.71189472  0.44077021    -0.77700
O608        O  0.26378627  0.63446485  0.46332451    -0.77900
C609        C  0.26835243  0.61127809  0.43537109     1.02700
O610        O  0.27758523  0.60008807  0.54227989    -0.85200
O611        O  0.35754642  0.62876849  0.56629933    -0.82300
C612        C  0.39513979  0.65237014  0.57033552     0.98300
O613        O  0.41351129  0.68212141  0.54229808    -0.82300
O614        O  0.38523775  0.72996885  0.56739418    -0.84900
C615        C  0.36168997  0.74241174  0.57350151     1.02800
O616        O  0.33311776  0.73279191  0.54363617    -0.77700
O617        O  0.28045623  0.65469700  0.56533291    -0.77900
C618        C  0.26534819  0.61775346  0.56963278     1.02700
Cr619      Cr  0.32910975  0.62144590  0.50340917     1.93700
Cr620      Cr  0.39316054  0.71126960  0.50419019     1.93200
Cr621      Cr  0.30299114  0.68264783  0.50302684     1.39100
O622        O  0.34177416  0.67170246  0.50284595    -1.23000
O623        O  0.24116255  0.87180793  0.53545130    -0.85200
O624        O  0.18209302  0.79361531  0.55661474    -0.82200
C625        C  0.14671244  0.76405947  0.56252070     0.98300
O626        O  0.11796110  0.76046487  0.53665290    -0.82300
O627        O  0.10460261  0.82091068  0.56140583    -0.84900
C628        C  0.10985879  0.85526234  0.56552667     1.02800
O629        O  0.13112488  0.88216594  0.53480394    -0.77700
O630        O  0.20774638  0.89969982  0.56027364    -0.77900
C631        C  0.23698708  0.89451906  0.56468089     1.02700
O632        O  0.22234771  0.85452318  0.43208329    -0.85200
O633        O  0.16886216  0.77628271  0.45359578    -0.82300
C634        C  0.13823294  0.76515939  0.42696867     0.98300
O635        O  0.11471080  0.77754844  0.43467238    -0.82300
O636        O  0.09433084  0.83243536  0.45799166    -0.84900
C637        C  0.11453996  0.86105482  0.42835287     1.02800
O638        O  0.15196418  0.88408163  0.43409375    -0.77700
O639        O  0.23003828  0.91022597  0.45995816    -0.77900
C640        C  0.23757265  0.89161685  0.42851040     1.02700
Cr641      Cr  0.20087784  0.82525667  0.49466433     1.93700
Cr642      Cr  0.11194138  0.80088662  0.49786013     1.93200
Cr643      Cr  0.17885347  0.88977128  0.49735327     1.39100
O644        O  0.16386928  0.83842627  0.49698498    -1.23000
C645        C  0.50120375  0.96246651  0.75955967     0.02400
C646        C  0.46265060  0.95866254  0.76125703     0.02400
C647        C  0.46011464  0.99352110  0.76011616     0.02400
C648        C  0.99670856  0.53198488  0.75662115     0.02400
C649        C  0.03511725  0.53581807  0.75283278     0.02400
C650        C  0.03729087  0.50072828  0.75551657     0.02400
C651        C  0.12510287  0.98848691  0.79151694     0.03300
C652        C  0.15181702  0.00868517  0.75280771    -0.12900
C653        C  0.14179761  0.52571963  0.71482764     0.00800
C654        C  0.10431625  0.52279593  0.71571260    -0.11400
C655        C  0.07737799  0.00418941  0.75523186     0.03300
C656        C  0.08825972  0.98713647  0.79301365    -0.10800
H657        H  0.18095692  0.01133882  0.75233467     0.08900
H658        H  0.09605945  0.53532656  0.68591753     0.06400
H659        H  0.06723940  0.97150719  0.82256096     0.06200
C660        C  0.37408203  0.50831534  0.79693893     0.03300
C661        C  0.41065176  0.50913800  0.79761967    -0.12900
C662        C  0.41989667  0.49020791  0.76056480     0.00800
C663        C  0.39064548  0.96873047  0.72396416    -0.11400
C664        C  0.35395246  0.96809252  0.72248814     0.03300
C665        C  0.34654664  0.48846917  0.75896636    -0.10800
H666        H  0.43206433  0.52485682  0.82678359     0.08900
H667        H  0.39768286  0.95460863  0.69486634     0.06400
H668        H  0.31894173  0.48889842  0.75776271     0.06200
C669        C  0.48134739  0.61404601  0.71162924     0.03300
C670        C  0.49736653  0.64077770  0.75165101    -0.12900
C671        C  0.01185530  0.63213165  0.79444952     0.00800
C672        C  0.00730708  0.59411096  0.79716025    -0.11400
C673        C  0.49483212  0.56875369  0.75624938     0.03300
C674        C  0.48305920  0.57935258  0.71354815    -0.10800
H675        H  0.49855186  0.66867121  0.74917133     0.08900
H676        H  0.01328252  0.58347981  0.83047942     0.06400
H677        H  0.47669694  0.56077170  0.68173295     0.06200
C678        C  0.11506054  0.64257392  0.70927619     0.03300
C679        C  0.07953351  0.60422262  0.71097334    -0.12900
C680        C  0.07335339  0.57675702  0.74875717     0.00800
C681        C  0.10437354  0.58792489  0.78303431    -0.11400
C682        C  0.14079291  0.62492048  0.78052386     0.03300
C683        C  0.14563030  0.65230063  0.74394008    -0.10800
H684        H  0.05678323  0.59599536  0.68310611     0.08900
H685        H  0.10008011  0.56755319  0.81243875     0.06400
H686        H  0.17358180  0.68094621  0.74166179     0.06200
C687        C  0.02527199  0.88451079  0.71823741     0.03300
C688        C  0.02385813  0.91939535  0.72076089    -0.12900
C689        C  0.00395511  0.92572547  0.75928001     0.00800
C690        C  0.48573404  0.89660926  0.79620311    -0.11400
C691        C  0.48521515  0.86063128  0.79323016     0.03300
C692        C  0.00531106  0.85501947  0.75430887    -0.10800
H693        H  0.03877151  0.94215245  0.69299217     0.08900
H694        H  0.47028750  0.90122407  0.82603186     0.06400
H695        H  0.00521473  0.82745343  0.75197075     0.06200
C696        C  0.38794127  0.84764797  0.73795753     0.03300
C697        C  0.36491014  0.83739955  0.78120066    -0.12900
C698        C  0.36801291  0.86718412  0.81276296     0.00800
C699        C  0.39940295  0.90705546  0.80571483    -0.11400
C700        C  0.42531209  0.91771197  0.76518902     0.03300
C701        C  0.41752120  0.88827456  0.73008390    -0.10800
H702        H  0.34246872  0.80658751  0.78892062     0.08900
H703        H  0.40319151  0.92992685  0.83111052     0.06400
H704        H  0.43548671  0.89729656  0.69697326     0.06200
C705        C  0.12106009  0.67289998  0.67132476     0.00000
C706        C  0.12667028  0.66687942  0.62188895    -0.11900
C707        C  0.13541094  0.69630471  0.58613223     0.02200
C708        C  0.13854161  0.73260216  0.59937447    -0.00100
C709        C  0.13246817  0.73838112  0.64850377    -0.11800
C710        C  0.12380548  0.70913455  0.68422003     0.02100
H711        H  0.12511510  0.63950604  0.61137282     0.15100
H712        H  0.13419340  0.76578654  0.65899409     0.15100
C713        C  0.11688783  0.71684952  0.73369946     0.36700
C714        C  0.14207096  0.68907573  0.53622686     0.36600
N715        N  0.11128689  0.72376746  0.77301936    -0.43600
N716        N  0.14766962  0.68336017  0.49628179    -0.43600
C717        C  0.04791173  0.87875469  0.67839283     0.00000
C718        C  0.07327069  0.86451654  0.69070410    -0.11900
C719        C  0.09408923  0.85713339  0.65458751     0.02200
C720        C  0.08970664  0.86392258  0.60500037    -0.00100
C721        C  0.06591324  0.87976254  0.59263770    -0.11800
C722        C  0.04482638  0.88696373  0.62860986     0.02100
H723        H  0.07723610  0.85957842  0.72882869     0.15100
H724        H  0.06279952  0.88536682  0.55446886     0.15100
C725        C  0.01848278  0.90043525  0.61277826     0.36700
C726        C  0.12174381  0.84510387  0.66952778     0.36600
N727        N  0.99719876  0.91100727  0.60011317    -0.43600
N728        N  0.14442030  0.83618309  0.68175581    -0.43600
C729        C  0.26703131  0.91468246  0.60428380     0.00000
C730        C  0.28112582  0.89294039  0.62820718    -0.11900
C731        C  0.30924872  0.90986373  0.66604698     0.02200
C732        C  0.32465837  0.94954315  0.68095427    -0.00100
C733        C  0.31078797  0.97168453  0.65649173    -0.11800
C734        C  0.28250550  0.95472803  0.61823535     0.02100
H735        H  0.26934406  0.86205743  0.61800486     0.15100
H736        H  0.32331028  0.50337293  0.66572882     0.15100
C737        C  0.27202700  0.97968245  0.59164473     0.36700
C738        C  0.31948896  0.88455047  0.69079608     0.36600
N739        N  0.26406122  0.99966461  0.56942596    -0.43600
N740        N  0.32657677  0.86297789  0.71008436    -0.43600
C741        C  0.41849373  0.64349864  0.60522781     0.00000
C742        C  0.40537328  0.60352807  0.61430043    -0.11900
C743        C  0.42745612  0.59292035  0.64411434     0.02200
C744        C  0.46222895  0.62280917  0.66941444    -0.00100
C745        C  0.47670031  0.66292070  0.65722132    -0.11800
C746        C  0.45546150  0.67342120  0.62563363     0.02100
H747        H  0.37863627  0.58025241  0.59582698     0.15100
H748        H  0.50493273  0.68656518  0.67234466     0.15100
C749        C  0.47227193  0.71527735  0.61588596     0.36700
C750        C  0.41569494  0.55169225  0.64188065     0.36600
N751        N  0.48645172  0.74896789  0.60828187    -0.43600
N752        N  0.40709646  0.51906640  0.63578277    -0.43600
C753        C  0.17129517  0.54806350  0.67530920     0.00000
C754        C  0.18243917  0.58760192  0.66583866    -0.11900
C755        C  0.21238528  0.61085242  0.63137450     0.02200
C756        C  0.23239956  0.59459010  0.60585709    -0.00100
C757        C  0.21988037  0.55447661  0.61434659    -0.11800
C758        C  0.18967600  0.53121220  0.64833423     0.02100
H759        H  0.16803546  0.60057287  0.68600339     0.15100
H760        H  0.23373314  0.54105855  0.59430998     0.15100
C761        C  0.17608625  0.98919092  0.65345362     0.36700
C762        C  0.22069519  0.65070353  0.62255444     0.36600
N763        N  0.16596310  0.95595092  0.65789422    -0.43600
N764        N  0.22662171  0.68238693  0.61566067    -0.43600
C765        C  0.37977748  0.81739990  0.69875855     0.00000
C766        C  0.41282533  0.82156134  0.67225981    -0.11900
C767        C  0.40742138  0.79800324  0.63115839     0.02200
C768        C  0.36832004  0.76885355  0.61570114    -0.00100
C769        C  0.33523092  0.76356707  0.64240364    -0.11800
C770        C  0.34032885  0.78689243  0.68380596     0.02100
H771        H  0.44319634  0.84388222  0.68306023     0.15100
H772        H  0.30516046  0.74065761  0.63115862     0.15100
C773        C  0.30390724  0.77831705  0.70865175     0.36700
C774        C  0.44234628  0.80578667  0.60341273     0.36600
N775        N  0.27399880  0.77020839  0.72772952    -0.43600
N776        N  0.46953401  0.81142317  0.57985378    -0.43600
C777        C  0.09395879  0.86805868  0.38725494     0.00000
C778        C  0.06176166  0.83524109  0.36352354    -0.11900
C779        C  0.04052727  0.84031817  0.32561243     0.02200
C780        C  0.05196005  0.87926768  0.30972617    -0.00100
C781        C  0.08520161  0.91203233  0.33273119    -0.11800
C782        C  0.10559321  0.90684191  0.37152429     0.02100
H783        H  0.05271018  0.80532941  0.37516240     0.15100
H784        H  0.09472482  0.94203846  0.32136738     0.15100
C785        C  0.13612448  0.94177138  0.39725193     0.36700
C786        C  0.50561676  0.80476186  0.30658147     0.36600
N787        N  0.16012948  0.96933442  0.41892867    -0.43600
N788        N  0.47752620  0.77577681  0.29247889    -0.43600
C789        C  0.37228281  0.82757425  0.32430190     0.00000
C790        C  0.40486994  0.82374538  0.33856807    -0.11900
C791        C  0.40073241  0.79746591  0.37596975     0.02200
C792        C  0.36280991  0.77261015  0.39820661    -0.00100
C793        C  0.33027143  0.77635974  0.38406147    -0.11800
C794        C  0.33491528  0.80420306  0.34864316     0.02100
H795        H  0.43385858  0.84149899  0.32057873     0.15100
H796        H  0.30132047  0.75841737  0.40207691     0.15100
C797        C  0.30157222  0.80983092  0.34060179     0.36700
C798        C  0.43587294  0.79681472  0.39122383     0.36600
N799        N  0.27486116  0.81442015  0.33454029    -0.43600
N800        N  0.46368840  0.79625211  0.40492626    -0.43600
C801        C  0.46294073  0.63004555  0.32985322     0.00000
C802        C  0.48558720  0.66659530  0.35541218    -0.11900
C803        C  0.46727847  0.67838978  0.39095976     0.02200
C804        C  0.42567720  0.65340550  0.40122279    -0.00100
C805        C  0.40393203  0.61737807  0.37663770    -0.11800
C806        C  0.42165309  0.60598001  0.34144907     0.02100
H807        H  0.51748128  0.68585355  0.34772055     0.15100
H808        H  0.37187170  0.59816715  0.38398132     0.15100
C809        C  0.39390239  0.57086729  0.31578882     0.36700
C810        C  0.49192791  0.71481333  0.41800895     0.36600
N811        N  0.36654197  0.54295650  0.29941544    -0.43600
N812        N  0.51172521  0.74375733  0.44021033    -0.43600
C813        C  0.11633635  0.67330130  0.32318034     0.00000
C814        C  0.14137181  0.71388180  0.31081914    -0.11900
C815        C  0.14816178  0.74427007  0.34336607     0.02200
C816        C  0.12857057  0.73484267  0.38896865    -0.00100
C817        C  0.10165991  0.69495256  0.40074108    -0.11800
C818        C  0.09551997  0.66416646  0.36918142     0.02100
H819        H  0.15608219  0.72230865  0.27541132     0.15100
H820        H  0.08648665  0.68774737  0.43597159     0.15100
C821        C  0.06874372  0.62431660  0.38755837     0.36700
C822        C  0.17586819  0.78480387  0.32877215     0.36600
N823        N  0.04681117  0.59272509  0.40305571    -0.43600
N824        N  0.19856448  0.81677127  0.31533138    -0.43600
C825        C  0.17098440  0.54226726  0.32930589     0.00000
C826        C  0.20171059  0.53357782  0.33679906    -0.11900
C827        C  0.23373863  0.55521734  0.37027910     0.02200
C828        C  0.23614652  0.58683660  0.39805644    -0.00100
C829        C  0.20534757  0.59480029  0.39176632    -0.11800
C830        C  0.17344744  0.57324925  0.35898847     0.02100
H831        H  0.20055743  0.50889230  0.31775101     0.15100
H832        H  0.20582013  0.61830198  0.41318012     0.15100
C833        C  0.14355739  0.58391198  0.35958914     0.36700
C834        C  0.26283251  0.54327337  0.37604359     0.36600
N835        N  0.11946373  0.59234210  0.36361287    -0.43600
N836        N  0.28590567  0.53336850  0.38053584    -0.43600
C837        C  0.26595966  0.91374467  0.38883013     0.00000
C838        C  0.30694314  0.93728573  0.39981788    -0.11900
C839        C  0.33534000  0.95703710  0.36271475     0.02200
C840        C  0.32290121  0.95086424  0.31283163    -0.00100
C841        C  0.28128731  0.92891137  0.30270445    -0.11800
C842        C  0.25292185  0.91206381  0.34044098     0.02100
H843        H  0.31670802  0.94066892  0.43766387     0.15100
H844        H  0.27062196  0.92525361  0.26538268     0.15100
C845        C  0.21091133  0.89581753  0.32916025     0.36700
C846        C  0.37626136  0.98528251  0.37773834     0.36600
N847        N  0.17737839  0.88330931  0.31984666    -0.43600
N848        N  0.40890589  0.00802634  0.39008886    -0.43600
C849        C  0.36556138  0.53115512  0.83314493     0.00000
C850        C  0.39198295  0.57259348  0.83600351    -0.11900
C851        C  0.38316661  0.59594923  0.86596342     0.02200
C852        C  0.34723486  0.57796797  0.89380578    -0.00100
C853        C  0.32078105  0.53646619  0.89110433    -0.11800
C854        C  0.32980933  0.51297987  0.86139442     0.02100
H855        H  0.41912243  0.58686718  0.81382388     0.15100
H856        H  0.29374812  0.52223957  0.91346331     0.15100
C857        C  0.30277619  0.47017109  0.86175820     0.36700
C858        C  0.41081729  0.63861184  0.86647032     0.36600
N859        N  0.28084431  0.93580220  0.86297108    -0.43600
N860        N  0.43249595  0.67287319  0.86730159    -0.43600
C861        C  0.35350660  0.58045654  0.09698302     0.00000
C862        C  0.35550357  0.54805378  0.07863459    -0.11900
C863        C  0.36211001  0.52378007  0.11013867     0.02200
C864        C  0.36703163  0.53205682  0.16064917    -0.00100
C865        C  0.36437599  0.56405917  0.17877028    -0.11800
C866        C  0.35718362  0.58785270  0.14761948     0.02100
H867        H  0.35180352  0.54169130  0.03969689     0.15100
H868        H  0.36746186  0.57040570  0.21741102     0.15100
C869        C  0.35077090  0.61772338  0.16887274     0.36700
C870        C  0.36230792  0.48979117  0.09045356     0.36600
N871        N  0.34499783  0.64118468  0.18610600    -0.43600
N872        N  0.36225799  0.46230433  0.07517481    -0.43600
C873        C  0.23123378  0.64452829  0.88820439     0.00000
C874        C  0.22164245  0.67392740  0.88026681    -0.11900
C875        C  0.19288555  0.66861827  0.84513545     0.02200
C876        C  0.17366590  0.63370963  0.81610461    -0.00100
C877        C  0.18441257  0.60502565  0.82299879    -0.11800
C878        C  0.21263341  0.60995500  0.85856788     0.02100
H879        H  0.23547167  0.70047533  0.90300288     0.15100
H880        H  0.17034885  0.57837364  0.80065198     0.15100
C881        C  0.22261883  0.57949424  0.86281836     0.36700
C882        C  0.18169362  0.69813286  0.84228649     0.36600
N883        N  0.23046000  0.55494169  0.86568974    -0.43600
N884        N  0.17260333  0.72176731  0.84058816    -0.43600
C885        C  0.41568228  0.76470177  0.89556805     0.00000
C886        C  0.44290489  0.80335404  0.91282578    -0.11900
C887        C  0.46634160  0.83475347  0.88037088     0.02200
C888        C  0.46203552  0.82795072  0.82930220    -0.00100
C889        C  0.43460261  0.78912993  0.81210317    -0.11800
C890        C  0.41164435  0.75758703  0.84473466     0.02100
H891        H  0.44612549  0.80892823  0.95197710     0.15100
H892        H  0.43052391  0.78359409  0.77299532     0.15100
C893        C  0.38271590  0.71870419  0.82532909     0.36700
C894        C  0.49545019  0.87330723  0.90048561     0.36600
N895        N  0.35938821  0.68751987  0.80994692    -0.43600
N896        N  0.01878900  0.90427233  0.91639698    -0.43600
C897        C  0.22948210  0.63918413  0.10933856     0.00000
C898        C  0.21586857  0.66607499  0.11293400    -0.11900
C899        C  0.18958307  0.66295089  0.15051261     0.02200
C900        C  0.17434357  0.63115470  0.18439384    -0.00100
C901        C  0.18911769  0.60531505  0.18226823    -0.11800
C902        C  0.21739078  0.60993690  0.14655209     0.02100
H903        H  0.22590085  0.68994847  0.08639107     0.15100
H904        H  0.17911569  0.58190981  0.20937962     0.15100
C905        C  0.23563568  0.58625533  0.15106752     0.36700
C906        C  0.17894982  0.69296189  0.15358864     0.36600
N907        N  0.25166855  0.56855895  0.15473191    -0.43600
N908        N  0.17121578  0.71756579  0.15676550    -0.41600
C909        C  0.41117157  0.76698680  0.09896364     0.00000
C910        C  0.41597214  0.80411848  0.09004705    -0.11900
C911        C  0.44000843  0.83700610  0.12024142     0.02200
C912        C  0.45978650  0.83289567  0.16211972    -0.00100
C913        C  0.45451964  0.79476121  0.16979778    -0.11800
C914        C  0.43196118  0.76275149  0.13794358     0.02100
H915        H  0.40095248  0.80750995  0.05860598     0.15100
H916        H  0.46743335  0.78894952  0.20104659     0.15100
C917        C  0.43134369  0.72613100  0.14577773     0.36700
C918        C  0.44291428  0.87350050  0.10483882     0.36600
N919        N  0.43206858  0.69740241  0.15190629    -0.43600
N920        N  0.44400151  0.90194337  0.09122305    -0.43600
C921        C  0.03257878  0.66365493  0.83417829     0.00000
C922        C  0.02322205  0.69383765  0.83954678    -0.11900
C923        C  0.04498385  0.72674146  0.87105380     0.02200
C924        C  0.07719806  0.73037804  0.89894996    -0.00100
C925        C  0.08570459  0.69990584  0.89515658    -0.11800
C926        C  0.06401303  0.66699555  0.86436766     0.02100
H927        H  0.49848221  0.69204426  0.81938383     0.15100
H928        H  0.10985095  0.70151030  0.91687266     0.15100
C929        C  0.07549523  0.63769859  0.86705594     0.36700
C930        C  0.03287337  0.75566299  0.87451915     0.36600
N931        N  0.08500028  0.61462775  0.87294143    -0.43600
N932        N  0.02297410  0.77870113  0.87726971    -0.43600
C933        C  0.03745435  0.66782600  0.16889273     0.00000
C934        C  0.02881281  0.69841550  0.16277290    -0.11900
C935        C  0.05129893  0.73075718  0.13095067     0.02200
C936        C  0.08308922  0.73304448  0.10364462    -0.00100
C937        C  0.09047161  0.70204303  0.10718781    -0.11800
C938        C  0.06808663  0.66956901  0.13836758     0.02100
H939        H  0.00423407  0.69733844  0.18269840     0.15100
H940        H  0.11352364  0.70268772  0.08409391     0.15100
C941        C  0.07704092  0.63851016  0.13451314     0.36700
C942        C  0.04208284  0.76185103  0.12828309     0.36600
N943        N  0.08426447  0.61387226  0.12766035    -0.43600
N944        N  0.03490704  0.78690578  0.12615573    -0.43600
C945        C  0.15258069  0.92219106  0.89421767     0.00000
C946        C  0.13857301  0.94648861  0.91140793    -0.11900
C947        C  0.13032094  0.96904742  0.87911000     0.02200
C948        C  0.13507379  0.96673461  0.82812429    -0.00100
C949        C  0.14953547  0.94264165  0.81114106    -0.11800
C950        C  0.15852043  0.92073729  0.84361850     0.02100
H951        H  0.13415702  0.94790472  0.95041560     0.15100
H952        H  0.15293273  0.94012741  0.77212404     0.15100
C953        C  0.17155389  0.89531412  0.82383788     0.36700
C954        C  0.11819877  0.99508061  0.89951050     0.36600
N955        N  0.18187293  0.87493611  0.80755822    -0.43600
N956        N  0.10844634  0.01587774  0.91597715    -0.43600
C957        C  0.33429515  0.85763641  0.84695617     0.00000
C958        C  0.29494754  0.83855790  0.82778901    -0.11900
C959        C  0.26249773  0.83355465  0.85570222     0.02200
C960        C  0.26893505  0.84745985  0.90426358    -0.00100
C961        C  0.30791879  0.86524105  0.92427344    -0.11800
C962        C  0.34044729  0.87020812  0.89625045     0.02100
H963        H  0.28963821  0.82896165  0.79003294     0.15100
H964        H  0.31295074  0.87520358  0.96207771     0.15100
C965        C  0.37943709  0.88728859  0.91925984     0.36700
C966        C  0.22369193  0.81688180  0.83239805     0.36600
N967        N  0.41055907  0.90081913  0.93801128    -0.43600
N968        N  0.19277331  0.80376537  0.81327576    -0.43600
C969        C  0.12849520  0.96699935  0.16470372     0.00000
C970        C  0.16798200  0.97516298  0.15636638    -0.11900
C971        C  0.17622301  0.95354153  0.12229143     0.02200
C972        C  0.14423980  0.92010367  0.09844098    -0.00100
C973        C  0.10526912  0.91236939  0.10494442    -0.11800
C974        C  0.09756859  0.93666377  0.13464664     0.02100
H975        H  0.19317087  0.99919967  0.17535894     0.15100
H976        H  0.08087493  0.88878600  0.08361092     0.15100
C977        C  0.05928481  0.93256774  0.12619188     0.36700
C978        C  0.21784084  0.96692356  0.11212203     0.36600
N979        N  0.02959455  0.93062130  0.11562180    -0.43600
N980        N  0.25122851  0.97809852  0.10352742    -0.43600
C981        C  0.26601257  0.85767354  0.10652499     0.00000
C982        C  0.28510093  0.83563723  0.10182155    -0.11900
C983        C  0.31298312  0.83870785  0.13663516     0.02200
C984        C  0.32430025  0.86606613  0.17531756    -0.00100
C985        C  0.30406376  0.88653693  0.18150228    -0.11800
C986        C  0.27425916  0.88165992  0.14856097     0.02100
H987        H  0.27786585  0.81538725  0.07124672     0.15100
H988        H  0.31044101  0.90502968  0.21344804     0.15100
C989        C  0.24987081  0.89791546  0.16183766     0.36700
C990        C  0.32767141  0.81190232  0.13357905     0.36600
N991        N  0.22954964  0.90972649  0.17406287    -0.43600
N992        N  0.33805804  0.78923403  0.13213323    -0.43600
O993        O  0.62409527  0.25870891  0.96450811    -0.85200
O994        O  0.70307199  0.31277844  0.93757981    -0.82200
C995        C  0.73675290  0.34503010  0.93503668     0.98300
O996        O  0.74422791  0.37431143  0.96194890    -0.82300
O997        O  0.69114026  0.39882104  0.93488692    -0.84900
C998        C  0.65787142  0.39699198  0.93017466     1.02800
O999        O  0.62838911  0.37496997  0.95786329    -0.77700
O1000       O  0.60097149  0.29513602  0.93723812    -0.77900
C1001       C  0.60203001  0.26355553  0.93511726     1.02700
O1002       O  0.64550849  0.27802519  0.06403453    -0.85200
O1003       O  0.72505890  0.32520129  0.03826151    -0.82300
C1004       C  0.73784888  0.35394989  0.06784964     0.98300
O1005       O  0.72738874  0.37925906  0.06279545    -0.82300
O1006       O  0.68132656  0.41110182  0.03589322    -0.84900
C1007       C  0.65099968  0.39524311  0.06382476     1.02800
O1008       O  0.62457918  0.35855557  0.05992101    -0.77700
O1009       O  0.59177214  0.27838232  0.04061037    -0.77900
C1010       C  0.60862282  0.26590589  0.06879132     1.02700
Cr1011     Cr  0.67368363  0.29699470  0.00079453     1.93700
Cr1012     Cr  0.70761628  0.38689118  0.99873663     1.93200
Cr1013     Cr  0.61551086  0.32758274  0.99880687     1.39100
O1014       O  0.66549626  0.33721713  0.99917853    -1.23000
O1015       O  0.86874963  0.23951549  0.96012380    -0.85200
O1016       O  0.78993793  0.18413940  0.93545070    -0.82200
C1017       C  0.75906663  0.15010256  0.92823965     0.98300
O1018       O  0.75121431  0.12110639  0.95608589    -0.82300
O1019       O  0.80561117  0.09791644  0.93418528    -0.84900
C1020       C  0.83976059  0.10167004  0.92977463     1.02800
O1021       O  0.86848506  0.12471708  0.95761568    -0.77700
O1022       O  0.89140615  0.20206559  0.93411030    -0.77900
C1023       C  0.89014991  0.23341461  0.93094790     1.02700
O1024       O  0.84881039  0.22175918  0.06090024    -0.85200
O1025       O  0.76846812  0.17215833  0.03762297    -0.82300
C1026       C  0.75647787  0.14325155  0.06705646     0.98300
O1027       O  0.76656816  0.11786118  0.05978005    -0.82300
O1028       O  0.81571916  0.08870372  0.03521791    -0.84900
C1029       C  0.84645027  0.10573238  0.06244179     1.02800
O1030       O  0.87157072  0.14274845  0.05894563    -0.77700
O1031       O  0.90261284  0.22206894  0.03614623    -0.77900
C1032       C  0.88591808  0.23454324  0.06437998     1.02700
Cr1033     Cr  0.81960696  0.20087651  0.99834744     1.93700
Cr1034     Cr  0.78792564  0.11064890  0.99648771     1.93200
Cr1035     Cr  0.87931518  0.17201438  0.99672246     1.39100
O1036       O  0.82891157  0.16108231  0.99699389    -1.23000
C1037       C  0.99873276  0.46326852  0.24755591     0.02400
C1038       C  0.96097437  0.46086030  0.24504628     0.02400
C1039       C  0.95955022  0.49630026  0.24278719     0.02400
C1040       C  0.49565999  0.03477112  0.24547948     0.02400
C1041       C  0.53376776  0.03716664  0.24736864     0.02400
C1042       C  0.53504874  0.00148241  0.24916298     0.02400
C1043       C  0.87379364  0.00843231  0.19622231     0.03300
C1044       C  0.91147114  0.01192542  0.19965628    -0.12900
C1045       C  0.91987301  0.99418900  0.23889398     0.00800
C1046       C  0.89025042  0.47230967  0.27428688    -0.11400
C1047       C  0.85229518  0.46811224  0.27129555     0.03300
C1048       C  0.84373694  0.98523437  0.23055127    -0.10800
H1049       H  0.93440668  0.02909624  0.17248467     0.08900
H1050       H  0.89696265  0.45878421  0.30433245     0.06400
H1051       H  0.81528540  0.98390421  0.22819723     0.06200
C1052       C  0.62133382  0.48880598  0.20655445     0.03300
C1053       C  0.58723823  0.49249248  0.20711779    -0.12900
C1054       C  0.57517560  0.50362170  0.24932700     0.00800
C1055       C  0.60037098  0.01612036  0.29040327    -0.11400
C1056       C  0.63896703  0.02043641  0.28866645     0.03300
C1057       C  0.64772898  0.50473481  0.24745601    -0.10800
H1058       H  0.56951989  0.48769020  0.17497680     0.08900
H1059       H  0.58907369  0.02165314  0.32350066     0.06400
H1060       H  0.67531243  0.50481521  0.24692337     0.06200
C1061       C  0.64162023  0.12239765  0.22028199     0.03300
C1062       C  0.60461930  0.08611955  0.21682776    -0.12900
C1063       C  0.57251075  0.07700607  0.24868714     0.00800
C1064       C  0.57734595  0.10577339  0.28269849    -0.11400
C1065       C  0.61358615  0.14256851  0.28741313     0.03300
C1066       C  0.64613393  0.15015452  0.25629863    -0.10800
H1067       H  0.60053280  0.06542694  0.18804950     0.08900
H1068       H  0.55220043  0.09898818  0.30548234     0.06400
H1069       H  0.67513777  0.17750953  0.25988441     0.06200
C1070       C  0.98227517  0.12007374  0.28952338     0.03300
C1071       C  0.97814971  0.08220003  0.28654408    -0.12900
C1072       C  0.99356772  0.07207339  0.24589215     0.00800
C1073       C  0.50946080  0.09866298  0.20632290    -0.11400
C1074       C  0.51675578  0.13778372  0.20949547     0.03300
C1075       C  0.00353225  0.14800064  0.25226310    -0.10800
H1076       H  0.96425964  0.06120771  0.31641948     0.08900
H1077       H  0.51576230  0.08784046  0.17348665     0.06400
H1078       H  0.00900692  0.17776265  0.25674596     0.06200
C1079       C  0.87911451  0.35592378  0.28443727     0.03300
C1080       C  0.85037066  0.34592394  0.24718140    -0.12900
C1081       C  0.85698125  0.37341512  0.21023730     0.00800
C1082       C  0.89369141  0.40992890  0.20832330    -0.11400
C1083       C  0.92253512  0.42084265  0.24556628     0.03300
C1084       C  0.91460723  0.39385630  0.28387249    -0.10800
H1085       H  0.82268721  0.31700218  0.24697306     0.08900
H1086       H  0.89927290  0.43037713  0.17849631     0.06400
H1087       H  0.93631628  0.40247275  0.31326169     0.06200
C1088       C  0.52902346  0.38669584  0.27165871     0.03300
C1089       C  0.52203923  0.41800718  0.27887937    -0.12900
C1090       C  0.50031979  0.42584617  0.24453636     0.00800
C1091       C  0.98001332  0.39804874  0.20686128    -0.11400
C1092       C  0.98499663  0.36547011  0.19889133     0.03300
C1093       C  0.51296651  0.36287665  0.22945479    -0.10800
H1094       H  0.53389114  0.43684515  0.31094879     0.08900
H1095       H  0.96040481  0.40263424  0.18432309     0.06400
H1096       H  0.52220872  0.34200814  0.22106134     0.06200
O1097       O  0.79928662  0.10823432  0.43990195    -0.85200
O1098       O  0.87820948  0.13254100  0.46517480    -0.82200
C1099       C  0.90323459  0.16164016  0.43864085     0.98300
O1100       O  0.90701262  0.19540428  0.44249688    -0.82300
O1101       O  0.88391879  0.24938108  0.46593864    -0.84900
C1102       C  0.85598753  0.24249995  0.43627811     1.02800
O1103       O  0.82171932  0.21132481  0.44037373    -0.77700
O1104       O  0.76371872  0.13384962  0.46282751    -0.77900
C1105       C  0.76845790  0.11079003  0.43486682     1.02700
O1106       O  0.77738602  0.09948783  0.54198811    -0.85200
O1107       O  0.85745226  0.12859359  0.56637332    -0.82300
C1108       C  0.89500272  0.15238665  0.57069653     0.98300
O1109       O  0.91335039  0.18221863  0.54279683    -0.82300
O1110       O  0.88442920  0.22955597  0.56751952    -0.84900
C1111       C  0.86091116  0.24207545  0.57315536     1.02800
O1112       O  0.83239203  0.23226692  0.54315178    -0.77700
O1113       O  0.77999892  0.15402814  0.56479783    -0.77900
C1114       C  0.76492975  0.11708700  0.56913217     1.02700
Cr1115     Cr  0.82912440  0.12116183  0.50331925     1.93700
Cr1116     Cr  0.89286564  0.21112418  0.50447699     1.93200
Cr1117     Cr  0.80262830  0.18206446  0.50258900     1.39100
O1118       O  0.84156344  0.17135382  0.50274562    -1.23000
O1119       O  0.74139994  0.37200869  0.53564361    -0.85200
O1120       O  0.68213268  0.29392913  0.55721306    -0.82200
C1121       C  0.64676461  0.26425256  0.56273207     0.98300
O1122       O  0.61821596  0.26045639  0.53626272    -0.82300
O1123       O  0.60447240  0.32067389  0.56076266    -0.84900
C1124       C  0.60974593  0.35503308  0.56492032     1.02800
O1125       O  0.63123512  0.38206177  0.53441790    -0.77700
O1126       O  0.70788964  0.39986717  0.56016707    -0.77900
C1127       C  0.73719313  0.39480131  0.56467024     1.02700
O1128       O  0.72273621  0.35432429  0.43243411    -0.85200
O1129       O  0.66929265  0.27618079  0.45427057    -0.82300
C1130       C  0.63906134  0.26534483  0.42702614     0.98300
O1131       O  0.61561016  0.27788996  0.43418089    -0.82300
O1132       O  0.59470415  0.33236484  0.45739453    -0.84900
C1133       C  0.61501321  0.36096556  0.42780130     1.02800
O1134       O  0.65239665  0.38401174  0.43375207    -0.77700
O1135       O  0.73030630  0.41011170  0.45987163    -0.77900
C1136       C  0.73786143  0.39138758  0.42860701     1.02700
Cr1137     Cr  0.70116967  0.32530260  0.49509750     1.93700
Cr1138     Cr  0.61226692  0.30086884  0.49735718     1.93200
Cr1139     Cr  0.67909383  0.38977177  0.49714894     1.39100
O1140       O  0.66415873  0.33846357  0.49694278    -1.23000
C1141       C  0.00126209  0.46235990  0.75902728     0.02400
C1142       C  0.96277671  0.45869776  0.76071879     0.02400
C1143       C  0.96038409  0.49362614  0.75967845     0.02400
C1144       C  0.49636421  0.03195751  0.75704446     0.02400
C1145       C  0.53479107  0.03588778  0.75306204     0.02400
C1146       C  0.53713694  0.00089835  0.75586310     0.02400
C1147       C  0.62515516  0.48818127  0.79127310     0.03300
C1148       C  0.65196898  0.50853023  0.75270922    -0.12900
C1149       C  0.64160538  0.02587584  0.71496141     0.00800
C1150       C  0.60418008  0.02307189  0.71600140    -0.11400
C1151       C  0.57744467  0.50384974  0.75486315     0.03300
C1152       C  0.58823937  0.48669681  0.79261109    -0.10800
H1153       H  0.68118997  0.51136102  0.75242708     0.08900
H1154       H  0.59586991  0.03554645  0.68619522     0.06400
H1155       H  0.56714537  0.47097898  0.82206149     0.06200
C1156       C  0.87359402  0.00786367  0.79723762     0.03300
C1157       C  0.91026184  0.00889228  0.79789198    -0.12900
C1158       C  0.91955676  0.98991983  0.76096135     0.00800
C1159       C  0.89103173  0.46928190  0.72344588    -0.11400
C1160       C  0.85447083  0.46890118  0.72194242     0.03300
C1161       C  0.84596340  0.98767945  0.75944736    -0.10800
H1162       H  0.93172218  0.02482104  0.82694190     0.08900
H1163       H  0.89797783  0.45510810  0.69432072     0.06400
H1164       H  0.81828148  0.98796378  0.75824658     0.06200
C1165       C  0.98122439  0.11426731  0.71238931     0.03300
C1166       C  0.99731891  0.14095354  0.75245593    -0.12900
C1167       C  0.51176804  0.13219935  0.79522055     0.00800
C1168       C  0.50710246  0.09411068  0.79783290    -0.11400
C1169       C  0.99447115  0.06874207  0.75689099     0.03300
C1170       C  0.98283381  0.07951055  0.71422468    -0.10800
H1171       H  0.99859620  0.16889523  0.75004783     0.08900
H1172       H  0.51314633  0.08345375  0.83108110     0.06400
H1173       H  0.97653924  0.06102215  0.68233386     0.06200
C1174       C  0.61448443  0.14277092  0.70965122     0.03300
C1175       C  0.57904604  0.10434236  0.71119566    -0.12900
C1176       C  0.57290582  0.07687420  0.74896223     0.00800
C1177       C  0.60382210  0.08811478  0.78335005    -0.11400
C1178       C  0.64018465  0.12512691  0.78089773     0.03300
C1179       C  0.64501257  0.15253578  0.74437235    -0.10800
H1180       H  0.55635094  0.09605899  0.68323970     0.08900
H1181       H  0.59951376  0.06774337  0.81276256     0.06400
H1182       H  0.67293858  0.18120716  0.74214079     0.06200
C1183       C  0.52492110  0.38421749  0.71734013     0.03300
C1184       C  0.52362267  0.41916172  0.71995540    -0.12900
C1185       C  0.50384599  0.42554281  0.75858335     0.00800
C1186       C  0.98564406  0.39643801  0.79551051    -0.11400
C1187       C  0.98507400  0.36044072  0.79249310     0.03300
C1188       C  0.50501143  0.35475701  0.75345388    -0.10800
H1189       H  0.53856519  0.44194626  0.69222339     0.08900
H1190       H  0.97029408  0.40110406  0.82541458     0.06400
H1191       H  0.50486928  0.32716893  0.75108167     0.06200
C1192       C  0.88767376  0.34786047  0.73703435     0.03300
C1193       C  0.86474779  0.33755638  0.78036215    -0.12900
C1194       C  0.86801719  0.36732384  0.81209252     0.00800
C1195       C  0.89948548  0.40717194  0.80508608    -0.11400
C1196       C  0.92535243  0.41782241  0.76453661     0.03300
C1197       C  0.91740723  0.38845090  0.72928709    -0.10800
H1198       H  0.84220586  0.30674506  0.78794274     0.08900
H1199       H  0.90338255  0.43005161  0.83053501     0.06400
H1200       H  0.93534629  0.39748974  0.69615322     0.06200
C1201       C  0.62054323  0.17307112  0.67166071     0.00000
C1202       C  0.62677815  0.16724407  0.62239033    -0.11900
C1203       C  0.63576861  0.19671984  0.58663169     0.02200
C1204       C  0.63840069  0.23281535  0.59967239    -0.00100
C1205       C  0.63169052  0.23840480  0.64862763    -0.11800
C1206       C  0.62293828  0.20917381  0.68439990     0.02100
H1207       H  0.62559274  0.14001724  0.61204007     0.15100
H1208       H  0.63309030  0.26568275  0.65895309     0.15100
C1209       C  0.61585047  0.21688585  0.73381161     0.36700
C1210       C  0.64329643  0.18981600  0.53696303     0.36600
N1211       N  0.61022694  0.22386125  0.77309336    -0.43600
N1212       N  0.64962862  0.18442485  0.49720431    -0.43600
C1213       C  0.54753753  0.37841785  0.67750915     0.00000
C1214       C  0.57284528  0.36413665  0.68989579    -0.11900
C1215       C  0.59375469  0.35681444  0.65386133     0.02200
C1216       C  0.58942483  0.36358725  0.60426188    -0.00100
C1217       C  0.56563995  0.37941424  0.59179788    -0.11800
C1218       C  0.54456367  0.38668781  0.62771304     0.02100
H1219       H  0.57677178  0.35920029  0.72803488     0.15100
H1220       H  0.56262463  0.38506533  0.55361572     0.15100
C1221       C  0.51853126  0.40051561  0.61182570     0.36700
C1222       C  0.62155814  0.34500458  0.66890779     0.36600
N1223       N  0.49757929  0.41147196  0.59909729    -0.43600
N1224       N  0.64440477  0.33632813  0.68120969    -0.43600
C1225       C  0.76726773  0.41514594  0.60415657     0.00000
C1226       C  0.78123628  0.39342518  0.62837191    -0.11900
C1227       C  0.80942230  0.41049610  0.66608714     0.02200
C1228       C  0.82508162  0.45030229  0.68053362    -0.00100
C1229       C  0.81131037  0.47242946  0.65582495    -0.11800
C1230       C  0.78293148  0.45531664  0.61767157     0.02100
H1231       H  0.76928350  0.36244140  0.61852412     0.15100
H1232       H  0.82264521  0.00254992  0.66667561     0.15100
C1233       C  0.77255467  0.48019893  0.59071633     0.36700
C1234       C  0.81937527  0.38519892  0.69136187     0.36600
N1235       N  0.76466073  0.50010533  0.56820118    -0.43600
N1236       N  0.82623752  0.36369082  0.71122049    -0.43600
C1237       C  0.91836602  0.14364534  0.60576098     0.00000
C1238       C  0.90533802  0.10370846  0.61484239    -0.11900
C1239       C  0.92736671  0.09315738  0.64482591     0.02200
C1240       C  0.96207589  0.12306943  0.67021540    -0.00100
C1241       C  0.97645668  0.16318091  0.65807531    -0.11800
C1242       C  0.95523046  0.17362858  0.62635516     0.02100
H1243       H  0.87867046  0.08039643  0.59629729     0.15100
H1244       H  0.00461137  0.18686401  0.67330898     0.15100
C1245       C  0.97194263  0.21548503  0.61668327     0.36700
C1246       C  0.91546260  0.05188516  0.64287571     0.36600
N1247       N  0.98605842  0.24918344  0.60918533    -0.43600
N1248       N  0.90672315  0.01919265  0.63704186    -0.43600
C1249       C  0.67093321  0.04794137  0.67517986     0.00000
C1250       C  0.68234917  0.08753584  0.66564380    -0.11900
C1251       C  0.71212823  0.11049943  0.63088351     0.02200
C1252       C  0.73182645  0.09395570  0.60524447    -0.00100
C1253       C  0.71889002  0.05371993  0.61363585    -0.11800
C1254       C  0.68878160  0.03070926  0.64789146     0.02100
H1255       H  0.66825887  0.10076348  0.68594860     0.15100
H1256       H  0.73232930  0.04003113  0.59332645     0.15100
C1257       C  0.67747772  0.48982685  0.65388970     0.36700
C1258       C  0.72051055  0.15033450  0.62175613     0.36600
N1259       N  0.66782669  0.45670366  0.65822427    -0.43600
N1260       N  0.72650567  0.18199686  0.61448578    -0.43600
C1261       C  0.87931266  0.31768970  0.69770584     0.00000
C1262       C  0.91228420  0.32166740  0.67123916    -0.11900
C1263       C  0.90675802  0.29800447  0.63023475     0.02200
C1264       C  0.86760358  0.26887846  0.61491282    -0.00100
C1265       C  0.83457022  0.26391909  0.64141889    -0.11800
C1266       C  0.83979150  0.28739223  0.68269819     0.02100
H1267       H  0.94269887  0.34388139  0.68203782     0.15100
H1268       H  0.80446031  0.24110388  0.63018657     0.15100
C1269       C  0.80342386  0.27909733  0.70743270     0.36700
C1270       C  0.94163181  0.30563422  0.60248043     0.36600
N1271       N  0.77351241  0.27114836  0.72637016    -0.43600
N1272       N  0.96879235  0.31117011  0.57893838    -0.43600
C1273       C  0.59460739  0.36793510  0.38650979     0.00000
C1274       C  0.56272107  0.33509971  0.36244689    -0.11900
C1275       C  0.54162891  0.34013932  0.32432882     0.02200
C1276       C  0.55279007  0.37909852  0.30873072    -0.00100
C1277       C  0.58585202  0.41188563  0.33198373    -0.11800
C1278       C  0.60616273  0.40670604  0.37087394     0.02100
H1279       H  0.55383152  0.30519409  0.37395186     0.15100
H1280       H  0.59529471  0.44189980  0.32074470     0.15100
C1281       C  0.63654158  0.44160614  0.39679136     0.36700
C1282       C  0.00726713  0.30444697  0.30465554     0.36600
N1283       N  0.66045136  0.46909335  0.41865959    -0.43600
N1284       N  0.97970621  0.27526156  0.29004523    -0.43600
C1285       C  0.87268982  0.32688602  0.32379806     0.00000
C1286       C  0.90483516  0.32208572  0.33718469    -0.11900
C1287       C  0.90046134  0.29568353  0.37455304     0.02200
C1288       C  0.86276574  0.27190595  0.39774836    -0.00100
C1289       C  0.83068109  0.27661561  0.38443189    -0.11800
C1290       C  0.83559368  0.30447859  0.34893242     0.02100
H1291       H  0.93361083  0.33916358  0.31853269     0.15100
H1292       H  0.80195709  0.25945064  0.40317120     0.15100
C1293       C  0.80293925  0.31125538  0.34161480     0.36700
C1294       C  0.93505228  0.29363924  0.38870475     0.36600
N1295       N  0.77685826  0.31687421  0.33609641    -0.43600
N1296       N  0.96241902  0.29190800  0.40152251    -0.43600
C1297       C  0.96369800  0.13082666  0.33039253     0.00000
C1298       C  0.98627343  0.16729554  0.35614018    -0.11900
C1299       C  0.96783846  0.17897472  0.39165683     0.02200
C1300       C  0.92620060  0.15392605  0.40168859    -0.00100
C1301       C  0.90452198  0.11804911  0.37683167    -0.11800
C1302       C  0.92236089  0.10677961  0.34169690     0.02100
H1303       H  0.01819677  0.18656740  0.34863103     0.15100
H1304       H  0.87241897  0.09883952  0.38394492     0.15100
C1305       C  0.89467112  0.07178920  0.31583282     0.36700
C1306       C  0.99237728  0.21535411  0.41884148     0.36600
N1307       N  0.86729464  0.04395423  0.29937917    -0.43600
N1308       N  0.01210442  0.24428417  0.44109965    -0.43600
C1309       C  0.61720839  0.17332917  0.32363795     0.00000
C1310       C  0.64249293  0.21386668  0.31126233    -0.11900
C1311       C  0.64939865  0.24432898  0.34371716     0.02200
C1312       C  0.62958847  0.23501349  0.38917405    -0.00100
C1313       C  0.60254780  0.19517266  0.40100603    -0.11800
C1314       C  0.59637430  0.16431353  0.36959158     0.02100
H1315       H  0.65730220  0.22220389  0.27590766     0.15100
H1316       H  0.58730219  0.18806128  0.43618695     0.15100
C1317       C  0.56961700  0.12451130  0.38809892     0.36700
C1318       C  0.67747534  0.28477343  0.32914972     0.36600
N1319       N  0.54773791  0.09296709  0.40375453    -0.43600
N1320       N  0.70050401  0.31660152  0.31558813    -0.43600
C1321       C  0.67099272  0.04189952  0.32875052     0.00000
C1322       C  0.70176447  0.03321495  0.33607377    -0.11900
C1323       C  0.73388624  0.05485654  0.36949391     0.02200
C1324       C  0.73635196  0.08646292  0.39735475    -0.00100
C1325       C  0.70561225  0.09451227  0.39106357    -0.11800
C1326       C  0.67362407  0.07295466  0.35841700     0.02100
H1327       H  0.70057016  0.00852835  0.31698495     0.15100
H1328       H  0.70614581  0.11804934  0.41246918     0.15100
C1329       C  0.64373424  0.08359663  0.35928652     0.36700
C1330       C  0.76302073  0.04295319  0.37514361     0.36600
N1331       N  0.61961268  0.09195779  0.36358422    -0.43600
N1332       N  0.78615603  0.03312088  0.37957871    -0.43600
C1333       C  0.76618031  0.41335550  0.38885349     0.00000
C1334       C  0.80714784  0.43707525  0.39981606    -0.11900
C1335       C  0.83551524  0.45665608  0.36265204     0.02200
C1336       C  0.82304831  0.45018471  0.31278254    -0.00100
C1337       C  0.78144689  0.42800129  0.30265830    -0.11800
C1338       C  0.75310189  0.41128513  0.34040709     0.02100
H1339       H  0.81692191  0.44070911  0.43767953     0.15100
H1340       H  0.77077421  0.42409306  0.26532090     0.15100
C1341       C  0.71105834  0.39474118  0.32901552     0.36700
C1342       C  0.87642988  0.48501328  0.37758222     0.36600
N1343       N  0.67750517  0.38195702  0.31953227    -0.43600
N1344       N  0.90906116  0.50784141  0.38989220    -0.43600
C1345       C  0.86512813  0.03091251  0.83319901     0.00000
C1346       C  0.89162464  0.07236402  0.83583935    -0.11900
C1347       C  0.88293690  0.09587245  0.86570105     0.02200
C1348       C  0.84704172  0.07804684  0.89358988    -0.00100
C1349       C  0.82051904  0.03655576  0.89109547    -0.11800
C1350       C  0.82943449  0.01290698  0.86155585     0.02100
H1351       H  0.91873928  0.08651848  0.81361420     0.15100
H1352       H  0.79352485  0.02245791  0.91352621     0.15100
C1353       C  0.80236657  0.97011009  0.86231300     0.36700
C1354       C  0.91067409  0.13851845  0.86612408     0.36600
N1355       N  0.78132573  0.43584717  0.86201049    -0.43600
N1356       N  0.93237049  0.17277582  0.86697289    -0.43600
C1357       C  0.85364200  0.08125172  0.09687585     0.00000
C1358       C  0.85645113  0.04929848  0.07864774    -0.11900
C1359       C  0.86311402  0.02518297  0.11033120     0.02200
C1360       C  0.86721287  0.03312330  0.16092987    -0.00100
C1361       C  0.86370526  0.06467359  0.17894210    -0.11800
C1362       C  0.85656268  0.08838411  0.14755466     0.02100
H1363       H  0.85333429  0.04315839  0.03965263     0.15100
H1364       H  0.86608408  0.07072580  0.21764676     0.15100
C1365       C  0.84953718  0.11795701  0.16848856     0.36700
C1366       C  0.86411408  0.99160699  0.09070805     0.36600
N1367       N  0.84332598  0.14123742  0.18535065    -0.43600
N1368       N  0.86468903  0.96443433  0.07548607    -0.43600
C1369       C  0.73069001  0.14448384  0.88821207     0.00000
C1370       C  0.72131016  0.17403091  0.88024454    -0.11900
C1371       C  0.69247287  0.16877411  0.84529187     0.02200
C1372       C  0.67304356  0.13381433  0.81639104    -0.00100
C1373       C  0.68353309  0.10494773  0.82334828    -0.11800
C1374       C  0.71175219  0.10977391  0.85882858     0.02100
H1375       H  0.73535083  0.20065156  0.90285495     0.15100
H1376       H  0.66925072  0.07821998  0.80113547     0.15100
C1377       C  0.72134473  0.07904176  0.86325405     0.36700
C1378       C  0.68135021  0.19834563  0.84257775     0.36600
N1379       N  0.72883674  0.05424866  0.86626896    -0.43600
N1380       N  0.67225920  0.22198253  0.84098914    -0.43600
C1381       C  0.91537663  0.26473898  0.89496217     0.00000
C1382       C  0.94260381  0.30340240  0.91217510    -0.11900
C1383       C  0.96624632  0.33469322  0.87968340     0.02200
C1384       C  0.96196520  0.32780947  0.82862748    -0.00100
C1385       C  0.93461508  0.28894879  0.81149354    -0.11800
C1386       C  0.91163357  0.25746776  0.84416770     0.02100
H1387       H  0.94574920  0.30904036  0.95131404     0.15100
H1388       H  0.93066034  0.28331248  0.77239812     0.15100
C1389       C  0.88311875  0.21842489  0.82482426     0.36700
C1390       C  0.99565727  0.37315632  0.89974794     0.36600
N1391       N  0.86018568  0.18708424  0.80950454    -0.43600
N1392       N  0.51928255  0.40402616  0.91565122    -0.43600
C1393       C  0.72950940  0.13915438  0.10926177     0.00000
C1394       C  0.71630857  0.16633265  0.11353524    -0.11900
C1395       C  0.69010618  0.16309289  0.15128179     0.02200
C1396       C  0.67456495  0.13092731  0.18465278    -0.00100
C1397       C  0.68894355  0.10478875  0.18187128    -0.11800
C1398       C  0.71710440  0.10947121  0.14597222     0.02100
H1399       H  0.72658783  0.19050735  0.08738800     0.15100
H1400       H  0.67870011  0.08107604  0.20858718     0.15100
C1401       C  0.73486009  0.08530144  0.14970985     0.36700
C1402       C  0.67978141  0.19330611  0.15498207     0.36600
N1403       N  0.75056478  0.06724851  0.15263844    -0.43600
N1404       N  0.67224213  0.21802090  0.15865808    -0.41600
C1405       C  0.91107514  0.26717449  0.09841722     0.00000
C1406       C  0.91610706  0.30440871  0.08956798    -0.11900
C1407       C  0.94038898  0.33724338  0.11971261     0.02200
C1408       C  0.96015634  0.33296041  0.16147320    -0.00100
C1409       C  0.95469479  0.29474441  0.16905265    -0.11800
C1410       C  0.93188206  0.26277185  0.13724911     0.02100
H1411       H  0.90110918  0.30792959  0.05820103     0.15100
H1412       H  0.96766176  0.28886509  0.20017479     0.15100
C1413       C  0.93101417  0.22600885  0.14497893     0.36700
C1414       C  0.94362991  0.37389486  0.10432772     0.36600
N1415       N  0.93150009  0.19714362  0.15103392    -0.43600
N1416       N  0.94499307  0.40247969  0.09074469    -0.43600
C1417       C  0.53253959  0.16368125  0.83502482     0.00000
C1418       C  0.52319349  0.19386231  0.84053850    -0.11900
C1419       C  0.54497483  0.22673062  0.87210964     0.02200
C1420       C  0.57735993  0.23046439  0.89972098    -0.00100
C1421       C  0.58580550  0.19994996  0.89587233    -0.11800
C1422       C  0.56399324  0.16699413  0.86515692     0.02100
H1423       H  0.99845177  0.19209024  0.82042459     0.15100
H1424       H  0.60999753  0.20155509  0.91748846     0.15100
C1425       C  0.57537360  0.13762425  0.86787740     0.36700
C1426       C  0.53264260  0.25545743  0.87606203     0.36600
N1427       N  0.58483810  0.11452942  0.87383229    -0.43600
N1428       N  0.52254420  0.27831755  0.87929158    -0.43600
C1429       C  0.53857393  0.16871035  0.16971410     0.00000
C1430       C  0.53017048  0.19947238  0.16372835    -0.11900
C1431       C  0.55270189  0.23175212  0.13185699     0.02200
C1432       C  0.58426669  0.23378152  0.10431824    -0.00100
C1433       C  0.59149904  0.20267890  0.10784424    -0.11800
C1434       C  0.56906877  0.17026698  0.13909267     0.02100
H1435       H  0.50571639  0.19856711  0.18376008     0.15100
H1436       H  0.61444090  0.20318072  0.08467261     0.15100
C1437       C  0.57780127  0.13905898  0.13517661     0.36700
C1438       C  0.54378335  0.26306341  0.12940975     0.36600
N1439       N  0.58483129  0.11429677  0.12824242    -0.43600
N1440       N  0.53684423  0.28829001  0.12750356    -0.43600
C1441       C  0.65294712  0.42234641  0.89433729     0.00000
C1442       C  0.63857490  0.44637748  0.91134982    -0.11900
C1443       C  0.63020528  0.46877483  0.87894022     0.02200
C1444       C  0.63520671  0.46656608  0.82799571    -0.00100
C1445       C  0.65006430  0.44276261  0.81118265    -0.11800
C1446       C  0.65917137  0.42102178  0.84378280     0.02100
H1447       H  0.63396045  0.44771164  0.95031982     0.15100
H1448       H  0.65368229  0.44034302  0.77219916     0.15100
C1449       C  0.67262759  0.39589938  0.82413819     0.36700
C1450       C  0.61765584  0.49450384  0.89921688     0.36600
N1451       N  0.68328663  0.37578063  0.80790840    -0.43600
N1452       N  0.60752631  0.51502163  0.91561750    -0.43600
C1453       C  0.83442268  0.35784878  0.84646286     0.00000
C1454       C  0.79496043  0.33853847  0.82761113    -0.11900
C1455       C  0.76266331  0.33379692  0.85560224     0.02200
C1456       C  0.76935658  0.34811162  0.90397939    -0.00100
C1457       C  0.80844408  0.36609835  0.92371378    -0.11800
C1458       C  0.84082251  0.37083509  0.89559239     0.02100
H1459       H  0.78941429  0.32854532  0.79002773     0.15100
H1460       H  0.81366853  0.37635349  0.96140077     0.15100
C1461       C  0.87991662  0.38805122  0.91836056     0.36700
C1462       C  0.72374278  0.31697226  0.83253668     0.36600
N1463       N  0.91114355  0.40168876  0.93686601    -0.43600
N1464       N  0.69272713  0.30375994  0.81362932    -0.43600
C1465       C  0.62910454  0.46737373  0.16520740     0.00000
C1466       C  0.66863331  0.47570579  0.15677674    -0.11900
C1467       C  0.67692097  0.45407808  0.12274542     0.02200
C1468       C  0.64496291  0.42046471  0.09908747    -0.00100
C1469       C  0.60593125  0.41249028  0.10584116    -0.11800
C1470       C  0.59817489  0.43681652  0.13538269     0.02100
H1471       H  0.69380881  0.49992924  0.17560227     0.15100
H1472       H  0.58152198  0.38875803  0.08467952     0.15100
C1473       C  0.55991142  0.43269307  0.12670071     0.36700
C1474       C  0.71854961  0.46765878  0.11237897     0.36600
N1475       N  0.53027910  0.43076511  0.11587186    -0.43600
N1476       N  0.75194959  0.47899608  0.10363962    -0.43600
C1477       C  0.76671314  0.35797225  0.10647699     0.00000
C1478       C  0.78566936  0.33580926  0.10168367    -0.11900
C1479       C  0.81336765  0.33859568  0.13657282     0.02200
C1480       C  0.82458990  0.36573589  0.17545355    -0.00100
C1481       C  0.80445730  0.38628231  0.18175398    -0.11800
C1482       C  0.77491973  0.38180567  0.14865451     0.02100
H1483       H  0.77847393  0.31568196  0.07098189     0.15100
H1484       H  0.81075929  0.40456723  0.21386038     0.15100
C1485       C  0.75088878  0.39849166  0.16177901     0.36700
C1486       C  0.82794378  0.31170212  0.13347443     0.36600
N1487       N  0.73090817  0.41072775  0.17388189    -0.43600
N1488       N  0.83828209  0.28899444  0.13214262    -0.43600
O1489       O  0.62343023  0.75830611  0.96424221    -0.85200
O1490       O  0.70255163  0.81212247  0.93768337    -0.82200
C1491       C  0.73622971  0.84438085  0.93514748     0.98300
O1492       O  0.74361227  0.87372397  0.96188411    -0.82300
O1493       O  0.69056507  0.89830826  0.93455269    -0.84900
C1494       C  0.65737672  0.89666197  0.92990676     1.02800
O1495       O  0.62786113  0.87465485  0.95754445    -0.77700
O1496       O  0.60053815  0.79487679  0.93673184    -0.77900
C1497       C  0.60160986  0.76330618  0.93460517     1.02700
O1498       O  0.64452063  0.77755132  0.06389380    -0.85200
O1499       O  0.72418124  0.82458274  0.03850275    -0.82300
C1500       C  0.73705862  0.85346884  0.06789827     0.98300
O1501       O  0.72666525  0.87881201  0.06263142    -0.82300
O1502       O  0.68062794  0.91061210  0.03546049    -0.84900
C1503       C  0.65025441  0.89480195  0.06332190     1.02800
O1504       O  0.62381828  0.85810987  0.05948724    -0.77700
O1505       O  0.59087183  0.77787188  0.04004157    -0.77900
C1506       C  0.60759421  0.76534447  0.06835592     1.02700
Cr1507     Cr  0.67292159  0.79645898  0.00077009     1.93700
Cr1508     Cr  0.70696511  0.88638081  0.99847827     1.93200
Cr1509     Cr  0.61485234  0.82718024  0.99837187     1.39100
O1510       O  0.66481941  0.83673722  0.99893755    -1.23000
O1511       O  0.86912991  0.73940248  0.96076551    -0.85200
O1512       O  0.79037641  0.68411963  0.93572546    -0.82200
C1513       C  0.75947170  0.65011832  0.92843239     0.98300
O1514       O  0.75147344  0.62110618  0.95634289    -0.82300
O1515       O  0.80572143  0.59766721  0.93461381    -0.84900
C1516       C  0.83988772  0.60145828  0.93013442     1.02800
O1517       O  0.86862852  0.62449515  0.95796002    -0.77700
O1518       O  0.89178746  0.70197697  0.93471989    -0.77900
C1519       C  0.89051974  0.73332642  0.93156671     1.02700
O1520       O  0.84897536  0.72149077  0.06139541    -0.85200
O1521       O  0.76865393  0.67205208  0.03780723    -0.82300
C1522       C  0.75656168  0.64317538  0.06730316     0.98300
O1523       O  0.76661959  0.61773583  0.06017905    -0.82300
O1524       O  0.81561063  0.58830705  0.03561231    -0.84900
C1525       C  0.84639945  0.60515641  0.06275153     1.02800
O1526       O  0.87162188  0.64217241  0.05936048    -0.77700
O1527       O  0.90278600  0.72167109  0.03693231    -0.77900
C1528       C  0.88607118  0.73424178  0.06500224     1.02700
Cr1529     Cr  0.81989709  0.70072600  0.99875622     1.93700
Cr1530     Cr  0.78802071  0.61046780  0.99687894     1.93200
Cr1531     Cr  0.87949891  0.67170484  0.99726355     1.39100
O1532       O  0.82911436  0.66086369  0.99745249    -1.23000
C1533       C  0.99839270  0.96351250  0.24760691     0.02400
C1534       C  0.96072612  0.96131869  0.24509232     0.02400
C1535       C  0.95951414  0.99687816  0.24293993     0.02400
C1536       C  0.49553620  0.53429495  0.24526088     0.02400
C1537       C  0.53373598  0.53692380  0.24723008     0.02400
C1538       C  0.53524015  0.50136227  0.24916051     0.02400
C1539       C  0.87361457  0.50732013  0.19584092     0.03300
C1540       C  0.91131056  0.51088174  0.19925510    -0.12900
C1541       C  0.91985017  0.49340931  0.23866896     0.00800
C1542       C  0.89015432  0.97297052  0.27437304    -0.11400
C1543       C  0.85221504  0.96884248  0.27137389     0.03300
C1544       C  0.84368936  0.48432236  0.23038861    -0.10800
H1545       H  0.93418267  0.52796638  0.17198239     0.08900
H1546       H  0.89676131  0.95929234  0.30433139     0.06400
H1547       H  0.81522232  0.48296767  0.22808904     0.06200
C1548       C  0.62079468  0.98837478  0.20620275     0.03300
C1549       C  0.58677183  0.99220214  0.20692013    -0.12900
C1550       C  0.57489714  0.00347414  0.24918768     0.00800
C1551       C  0.60051969  0.51632985  0.29063813    -0.11400
C1552       C  0.63918135  0.52083173  0.28904127     0.03300
C1553       C  0.64726149  0.00417726  0.24706360    -0.10800
H1554       H  0.56898484  0.98743044  0.17485686     0.08900
H1555       H  0.58910240  0.52179870  0.32368252     0.06400
H1556       H  0.67472457  0.00405433  0.24650119     0.06200
C1557       C  0.64129487  0.62262824  0.21987858     0.03300
C1558       C  0.60446205  0.58616853  0.21657745    -0.12900
C1559       C  0.57232523  0.57689175  0.24844931     0.00800
C1560       C  0.57693965  0.60563720  0.28235166    -0.11400
C1561       C  0.61297709  0.64263087  0.28692735     0.03300
C1562       C  0.64556715  0.65044445  0.25570957    -0.10800
H1563       H  0.60053506  0.56544465  0.18792028     0.08900
H1564       H  0.55174703  0.59867572  0.30510345     0.06400
H1565       H  0.67443250  0.67797841  0.25913597     0.06200
C1566       C  0.98142402  0.61925753  0.28888743     0.03300
C1567       C  0.97760922  0.58151318  0.28608944    -0.12900
C1568       C  0.99314853  0.57144385  0.24549851     0.00800
C1569       C  0.50883021  0.59792663  0.20580296    -0.11400
C1570       C  0.51577995  0.63692997  0.20875985     0.03300
C1571       C  0.00243431  0.64710249  0.25145692    -0.10800
H1572       H  0.96390788  0.56060359  0.31607618     0.08900
H1573       H  0.51523401  0.58711072  0.17303921     0.06400
H1574       H  0.00767767  0.67678837  0.25579570     0.06200
C1575       C  0.87860428  0.85658455  0.28484571     0.03300
C1576       C  0.85002104  0.84644948  0.24732078    -0.12900
C1577       C  0.85668750  0.87386381  0.21021760     0.00800
C1578       C  0.89338594  0.91042012  0.20833694    -0.11400
C1579       C  0.92217087  0.92138845  0.24567207     0.03300
C1580       C  0.91406744  0.89456886  0.28423090    -0.10800
H1581       H  0.82243178  0.81746343  0.24694097     0.08900
H1582       H  0.89902217  0.93083702  0.17845119     0.06400
H1583       H  0.93569324  0.90336494  0.31374632     0.06200
C1584       C  0.52831383  0.88684844  0.27248497     0.03300
C1585       C  0.52136048  0.91818235  0.27945259    -0.12900
C1586       C  0.49975844  0.92597927  0.24488417     0.00800
C1587       C  0.97951251  0.89811710  0.20725046    -0.11400
C1588       C  0.98448715  0.86549731  0.19951960     0.03300
C1589       C  0.51237538  0.86296400  0.23032574    -0.10800
H1590       H  0.53320062  0.93710241  0.31145805     0.08900
H1591       H  0.95995596  0.90270988  0.18455338     0.06400
H1592       H  0.52164131  0.84206565  0.22222141     0.06200
O1593       O  0.79915168  0.60866641  0.44020471    -0.85200
O1594       O  0.87793892  0.63242405  0.46499752    -0.82200
C1595       C  0.90288738  0.66136669  0.43822797     0.98300
O1596       O  0.90681281  0.69521462  0.44201583    -0.82300
O1597       O  0.88427477  0.74969139  0.46584885    -0.84900
C1598       C  0.85620269  0.74303378  0.43652969     1.02800
O1599       O  0.82192420  0.71189438  0.44076977    -0.77700
O1600       O  0.76378518  0.63446478  0.46332412    -0.77900
C1601       C  0.76835110  0.61127766  0.43537111     1.02700
O1602       O  0.77758410  0.60008800  0.54228024    -0.85200
O1603       O  0.85754551  0.62876783  0.56629914    -0.82300
C1604       C  0.89513899  0.65236923  0.57033486     0.98300
O1605       O  0.91351029  0.68212028  0.54229700    -0.82300
O1606       O  0.88523641  0.72996739  0.56739378    -0.84900
C1607       C  0.86168880  0.74241042  0.57350165     1.02800
O1608       O  0.83311701  0.73279157  0.54363597    -0.77700
O1609       O  0.78045534  0.65469728  0.56533227    -0.77900
C1610       C  0.76534724  0.61775385  0.56963262     1.02700
Cr1611     Cr  0.82910832  0.62144516  0.50340917     1.93700
Cr1612     Cr  0.89315929  0.71126860  0.50418949     1.93200
Cr1613     Cr  0.80299017  0.68264765  0.50302637     1.39100
O1614       O  0.84177290  0.67170177  0.50284550    -1.23000
O1615       O  0.74116456  0.87181068  0.53544877    -0.85200
O1616       O  0.68209585  0.79361800  0.55661323    -0.82200
C1617       C  0.64671526  0.76406250  0.56252060     0.98300
O1618       O  0.61796326  0.76046808  0.53665440    -0.82300
O1619       O  0.60460559  0.82091424  0.56140810    -0.84900
C1620       C  0.60986177  0.85526592  0.56552879     1.02800
O1621       O  0.63112685  0.88216892  0.53480498    -0.77700
O1622       O  0.70774831  0.89970199  0.56027297    -0.77900
C1623       C  0.73698907  0.89452121  0.56467934     1.02700
O1624       O  0.72234738  0.85452545  0.43208084    -0.85200
O1625       O  0.66886275  0.77628530  0.45359461    -0.82300
C1626       C  0.63823264  0.76516138  0.42696902     0.98300
O1627       O  0.61471026  0.77754993  0.43467416    -0.82300
O1628       O  0.59433157  0.83243783  0.45799337    -0.84900
C1629       C  0.61454048  0.86105691  0.42835390     1.02800
O1630       O  0.65196474  0.88408370  0.43409426    -0.77700
O1631       O  0.73003912  0.91022834  0.45995683    -0.77900
C1632       C  0.73757254  0.89161916  0.42850808     1.02700
Cr1633     Cr  0.70087915  0.82525927  0.49466253     1.93700
Cr1634     Cr  0.61194266  0.80088931  0.49786187     1.93200
Cr1635     Cr  0.67885481  0.88977374  0.49735318     1.39100
O1636       O  0.66387056  0.83842876  0.49698491    -1.23000
C1637       C  0.00120431  0.96246522  0.75955836     0.02400
C1638       C  0.96265149  0.95866189  0.76125587     0.02400
C1639       C  0.96011605  0.99352075  0.76011507     0.02400
C1640       C  0.49670708  0.53198523  0.75662201     0.02400
C1641       C  0.53511600  0.53581917  0.75283301     0.02400
C1642       C  0.53729042  0.50072990  0.75551772     0.02400
C1643       C  0.62510262  0.98848963  0.79151918     0.03300
C1644       C  0.65181683  0.00868804  0.75281012    -0.12900
C1645       C  0.64179813  0.52572310  0.71482996     0.00800
C1646       C  0.60431639  0.52279866  0.71571445    -0.11400
C1647       C  0.57737757  0.00419174  0.75523374     0.03300
C1648       C  0.58825940  0.98713910  0.79301588    -0.10800
H1649       H  0.68095683  0.01134197  0.75233740     0.08900
H1650       H  0.59605922  0.53532862  0.68591887     0.06400
H1651       H  0.56723910  0.97150973  0.82256284     0.06200
C1652       C  0.87408322  0.50831528  0.79693754     0.03300
C1653       C  0.91065308  0.50913822  0.79761811    -0.12900
C1654       C  0.91989812  0.49020831  0.76056311     0.00800
C1655       C  0.89064747  0.96873105  0.72396249    -0.11400
C1656       C  0.85395456  0.96809325  0.72248637     0.03300
C1657       C  0.84654794  0.48846915  0.75896482    -0.10800
H1658       H  0.93206567  0.52485704  0.82678225     0.08900
H1659       H  0.89768494  0.95460940  0.69486467     0.06400
H1660       H  0.81894298  0.48889820  0.75776128     0.06200
C1661       C  0.98134706  0.61404535  0.71162998     0.03300
C1662       C  0.99736638  0.64077694  0.75165191    -0.12900
C1663       C  0.51185427  0.63213205  0.79444929     0.00800
C1664       C  0.50730489  0.59411096  0.79716081    -0.11400
C1665       C  0.99483391  0.56875370  0.75624872     0.03300
C1666       C  0.98305961  0.57935221  0.71354820    -0.10800
H1667       H  0.99855090  0.66867013  0.74917276     0.08900
H1668       H  0.51327950  0.58347953  0.83048065     0.06400
H1669       H  0.97669679  0.56077126  0.68173308     0.06200
C1670       C  0.61505892  0.64257553  0.70927603     0.03300
C1671       C  0.57953213  0.60422389  0.71097268    -0.12900
C1672       C  0.57335166  0.57675856  0.74875719     0.00800
C1673       C  0.60437117  0.58792715  0.78303538    -0.11400
C1674       C  0.64079023  0.62492289  0.78052528     0.03300
C1675       C  0.64562801  0.65230275  0.74394110    -0.10800
H1676       H  0.55678224  0.59599612  0.68310451     0.08900
H1677       H  0.60007767  0.56755558  0.81244006     0.06400
H1678       H  0.67357934  0.68094831  0.74166327     0.06200
C1679       C  0.52527517  0.88451428  0.71824053     0.03300
C1680       C  0.52385977  0.91939803  0.72076336    -0.12900
C1681       C  0.50395536  0.92572722  0.75928158     0.00800
C1682       C  0.98573380  0.89660763  0.79620173    -0.11400
C1683       C  0.98521300  0.86062875  0.79322771     0.03300
C1684       C  0.50531465  0.85502295  0.75431214    -0.10800
H1685       H  0.53877307  0.94215528  0.69299491     0.08900
H1686       H  0.97028844  0.90122317  0.82603154     0.06400
H1687       H  0.50521965  0.82745762  0.75197464     0.06200
C1688       C  0.88794172  0.84764731  0.73795744     0.03300
C1689       C  0.86491136  0.83739924  0.78120113    -0.12900
C1690       C  0.86801454  0.86718404  0.81276328     0.00800
C1691       C  0.89940440  0.90705532  0.80571466    -0.11400
C1692       C  0.92531279  0.91771155  0.76518813     0.03300
C1693       C  0.91752133  0.88827391  0.73008304    -0.10800
H1694       H  0.84247027  0.80658731  0.78892181     0.08900
H1695       H  0.90319332  0.92992677  0.83111036     0.06400
H1696       H  0.93548636  0.89729569  0.69697198     0.06200
C1697       C  0.62105953  0.67290191  0.67132441     0.00000
C1698       C  0.62666787  0.66688038  0.62188828    -0.11900
C1699       C  0.63541039  0.69630633  0.58613173     0.02200
C1700       C  0.63854477  0.73260538  0.59937447    -0.00100
C1701       C  0.63247372  0.73838556  0.64850418    -0.11800
C1702       C  0.62380907  0.70913832  0.68422021     0.02100
H1703       H  0.62510998  0.63950578  0.61137175     0.15100
H1704       H  0.63420176  0.76579216  0.65899484     0.15100
C1705       C  0.61689246  0.71685398  0.73369978     0.36700
C1706       C  0.64206903  0.68907655  0.53622612     0.36600
N1707       N  0.61129189  0.72377193  0.77301989    -0.43600
N1708       N  0.64766685  0.68336045  0.49628094    -0.43600
C1709       C  0.54791551  0.87875878  0.67839603     0.00000
C1710       C  0.57327445  0.86452053  0.69070700    -0.11900
C1711       C  0.59409280  0.85713725  0.65459023     0.02200
C1712       C  0.58971030  0.86392666  0.60500309    -0.00100
C1713       C  0.56591715  0.87976697  0.59264076    -0.11800
C1714       C  0.54483026  0.88696797  0.62861306     0.02100
H1715       H  0.57723978  0.85958210  0.72883171     0.15100
H1716       H  0.56280346  0.88537145  0.55447211     0.15100
C1717       C  0.51848680  0.90043965  0.61278145     0.36700
C1718       C  0.62174670  0.84510683  0.66953031     0.36600
N1719       N  0.49720307  0.91101203  0.60011642    -0.43600
N1720       N  0.64442248  0.83618518  0.68175840    -0.43600
C1721       C  0.76703338  0.91468408  0.60428223     0.00000
C1722       C  0.78112806  0.89294179  0.62820477    -0.11900
C1723       C  0.80925096  0.90986474  0.66604468     0.02200
C1724       C  0.82466062  0.94954409  0.68095243    -0.00100
C1725       C  0.81079018  0.97168569  0.65649051    -0.11800
C1726       C  0.78250735  0.95472938  0.61823455     0.02100
H1727       H  0.76934638  0.86205905  0.61800184     0.15100
H1728       H  0.82331096  0.50337327  0.66572887     0.15100
C1729       C  0.77202762  0.97968355  0.59164558     0.36700
C1730       C  0.81949121  0.88455108  0.69079300     0.36600
N1731       N  0.76406048  0.99966523  0.56942809    -0.43600
N1732       N  0.82657876  0.86297782  0.71008012    -0.43600
C1733       C  0.91849316  0.64349788  0.60522745     0.00000
C1734       C  0.90537206  0.60352732  0.61430161    -0.11900
C1735       C  0.92745513  0.59291967  0.64411543     0.02200
C1736       C  0.96222800  0.62280845  0.66941553    -0.00100
C1737       C  0.97669963  0.66291990  0.65722164    -0.11800
C1738       C  0.95546164  0.67342029  0.62563214     0.02100
H1739       H  0.87863486  0.58025163  0.59582871     0.15100
H1740       H  0.00493219  0.68656430  0.67234484     0.15100
C1741       C  0.97227459  0.71527616  0.61587984     0.36700
C1742       C  0.91569496  0.55169195  0.64188024     0.36600
N1743       N  0.98645675  0.74896640  0.60827134    -0.43600
N1744       N  0.90709752  0.51906657  0.63578065    -0.43600
C1745       C  0.67129556  0.54806625  0.67531104     0.00000
C1746       C  0.68243732  0.58760352  0.66583651    -0.11900
C1747       C  0.71238282  0.61085320  0.63137135     0.02200
C1748       C  0.73239897  0.59459126  0.60585732    -0.00100
C1749       C  0.71988240  0.55447909  0.61435101    -0.11800
C1750       C  0.68967849  0.53121537  0.64833928     0.02100
H1751       H  0.66803217  0.60057435  0.68599888     0.15100
H1752       H  0.73373706  0.54106155  0.59431731     0.15100
C1753       C  0.67608981  0.98919347  0.65346071     0.36700
C1754       C  0.72069024  0.65070283  0.62254645     0.36600
N1755       N  0.66596911  0.95595435  0.65790372    -0.43600
N1756       N  0.72661511  0.68238520  0.61564863    -0.43600
C1757       C  0.87977740  0.81739875  0.69875888     0.00000
C1758       C  0.91282489  0.82155996  0.67225964    -0.11900
C1759       C  0.90742048  0.79800119  0.63115883     0.02200
C1760       C  0.86831896  0.76885165  0.61570195    -0.00100
C1761       C  0.83523014  0.76356501  0.64240527    -0.11800
C1762       C  0.84032860  0.78689069  0.68380751     0.02100
H1763       H  0.94319595  0.84388105  0.68305928     0.15100
H1764       H  0.80515938  0.74065510  0.63116097     0.15100
C1765       C  0.80390747  0.77831498  0.70865481     0.36700
C1766       C  0.94234511  0.80578328  0.60341375     0.36600
N1767       N  0.77399957  0.77020606  0.72773417    -0.43600
N1768       N  0.96953246  0.81141822  0.57985511    -0.43600
C1769       C  0.59395926  0.86806066  0.38725572     0.00000
C1770       C  0.56176184  0.83524320  0.36352459    -0.11900
C1771       C  0.54052758  0.84032039  0.32561340     0.02200
C1772       C  0.55196106  0.87926997  0.30972636    -0.00100
C1773       C  0.58520304  0.91203443  0.33273087    -0.11800
C1774       C  0.60559448  0.90684393  0.37152409     0.02100
H1775       H  0.55271006  0.80533151  0.37516374     0.15100
H1776       H  0.59472679  0.94204084  0.32136641     0.15100
C1777       C  0.63612663  0.94177334  0.39725087     0.36700
C1778       C  0.00561721  0.80475949  0.30657959     0.36600
N1779       N  0.66013238  0.96933616  0.41892720    -0.43600
N1780       N  0.97752715  0.77577432  0.29247622    -0.43600
C1781       C  0.87228263  0.82757269  0.32430003     0.00000
C1782       C  0.90486844  0.82374058  0.33856294    -0.11900
C1783       C  0.90073047  0.79746112  0.37596492     0.02200
C1784       C  0.86280902  0.77260943  0.39820594    -0.00100
C1785       C  0.83027199  0.77636249  0.38406421    -0.11800
C1786       C  0.83491630  0.80420531  0.34864491     0.02100
H1787       H  0.93385626  0.84149163  0.32057077     0.15100
H1788       H  0.80132197  0.75842309  0.40208284     0.15100
C1789       C  0.80157538  0.80983686  0.34060566     0.36700
C1790       C  0.93586906  0.79680498  0.39121520     0.36600
N1791       N  0.77486628  0.81442936  0.33454554    -0.43600
N1792       N  0.96368236  0.79623759  0.40491573    -0.43600
C1793       C  0.96293883  0.63004325  0.32985337     0.00000
C1794       C  0.98558561  0.66659222  0.35541373    -0.11900
C1795       C  0.96727689  0.67838699  0.39096087     0.02200
C1796       C  0.92567514  0.65340378  0.40122210    -0.00100
C1797       C  0.90392956  0.61737710  0.37663552    -0.11800
C1798       C  0.92165066  0.60597874  0.34144729     0.02100
H1799       H  0.01748022  0.68584976  0.34772349     0.15100
H1800       H  0.87186869  0.59816688  0.38397785     0.15100
C1801       C  0.89389993  0.57086687  0.31578553     0.36700
C1802       C  0.99192668  0.71480963  0.41801166     0.36600
N1803       N  0.86653957  0.54295686  0.29941073    -0.43600
N1804       N  0.01172418  0.74375283  0.44021422    -0.43600
C1805       C  0.61633757  0.67330387  0.32318042     0.00000
C1806       C  0.64137421  0.71388453  0.31082036    -0.11900
C1807       C  0.64816351  0.74427261  0.34336731     0.02200
C1808       C  0.62857019  0.73484498  0.38896850    -0.00100
C1809       C  0.60165855  0.69495489  0.40073982    -0.11800
C1810       C  0.59551979  0.66416896  0.36918058     0.02100
H1811       H  0.65608605  0.72231177  0.27541318     0.15100
H1812       H  0.58648412  0.68774954  0.43596946     0.15100
C1813       C  0.56874367  0.62431911  0.38755757     0.36700
C1814       C  0.67587091  0.78480668  0.32877516     0.36600
N1815       N  0.54681119  0.59272766  0.40305504    -0.43600
N1816       N  0.69856779  0.81677480  0.31533708    -0.43600
C1817       C  0.67098393  0.54226774  0.32930537     0.00000
C1818       C  0.70170943  0.53357747  0.33679929    -0.11900
C1819       C  0.73373714  0.55521664  0.37027976     0.02200
C1820       C  0.73614542  0.58683639  0.39805633    -0.00100
C1821       C  0.70534705  0.59480082  0.39176542    -0.11800
C1822       C  0.67344702  0.57324990  0.35898753     0.02100
H1823       H  0.70055583  0.50889172  0.31775188     0.15100
H1824       H  0.70581989  0.61830280  0.41317878     0.15100
C1825       C  0.64355693  0.58391267  0.35958820     0.36700
C1826       C  0.76283007  0.54327153  0.37604550     0.36600
N1827       N  0.61946321  0.59234271  0.36361212    -0.43600
N1828       N  0.78590232  0.53336558  0.38053875    -0.43600
C1829       C  0.76595941  0.91374691  0.38882753     0.00000
C1830       C  0.80694304  0.93728668  0.39981508    -0.11900
C1831       C  0.83533993  0.95703762  0.36271192     0.02200
C1832       C  0.82290115  0.95086548  0.31282886    -0.00100
C1833       C  0.78128718  0.92891389  0.30270179    -0.11800
C1834       C  0.75292169  0.91206689  0.34043848     0.02100
H1835       H  0.81670799  0.94066914  0.43766083     0.15100
H1836       H  0.77062185  0.92525656  0.26538018     0.15100
C1837       C  0.71091137  0.89582190  0.32915781     0.36700
C1838       C  0.87626162  0.98528185  0.37773571     0.36600
N1839       N  0.67737867  0.88331488  0.31984410    -0.43600
N1840       N  0.90890628  0.00802448  0.39008655    -0.43600
C1841       C  0.86556203  0.53115461  0.83314366     0.00000
C1842       C  0.89198220  0.57259314  0.83600144    -0.11900
C1843       C  0.88316471  0.59594845  0.86596050     0.02200
C1844       C  0.84723291  0.57796646  0.89380306    -0.00100
C1845       C  0.82078062  0.53646437  0.89110277    -0.11800
C1846       C  0.82981017  0.51297859  0.86139359     0.02100
H1847       H  0.91912188  0.58686748  0.81382141     0.15100
H1848       H  0.79374786  0.52223713  0.91346224     0.15100
C1849       C  0.80277873  0.47016957  0.86175827     0.36700
C1850       C  0.91081427  0.63861129  0.86646664     0.36600
N1851       N  0.78084593  0.93580109  0.86296821    -0.43600
N1852       N  0.93249208  0.67287278  0.86729714    -0.43600
C1853       C  0.85350235  0.58045321  0.09697964     0.00000
C1854       C  0.85549677  0.54804888  0.07863155    -0.11900
C1855       C  0.86210469  0.52377607  0.11013552     0.02200
C1856       C  0.86703095  0.53205565  0.16064524    -0.00100
C1857       C  0.86437762  0.56405945  0.17876597    -0.11800
C1858       C  0.85718293  0.58785153  0.14761555     0.02100
H1859       H  0.85179379  0.54168465  0.03969442     0.15100
H1860       H  0.86746680  0.57040803  0.21740605     0.15100
C1861       C  0.85077095  0.61772270  0.16886900     0.36700
C1862       C  0.86229969  0.48978542  0.09045119     0.36600
N1863       N  0.84499820  0.64118425  0.18610199    -0.43600
N1864       N  0.86224748  0.46229726  0.07517306    -0.43600
C1865       C  0.73123154  0.64452929  0.88820362     0.00000
C1866       C  0.72163962  0.67392826  0.88026838    -0.11900
C1867       C  0.69288260  0.66861983  0.84513766     0.02200
C1868       C  0.67366323  0.63371185  0.81610558    -0.00100
C1869       C  0.68441045  0.60502816  0.82299762    -0.11800
C1870       C  0.71263151  0.60995687  0.85856573     0.02100
H1871       H  0.73546876  0.70047566  0.90300562     0.15100
H1872       H  0.67034691  0.57837671  0.80064959     0.15100
C1873       C  0.72261775  0.57949656  0.86281355     0.36700
C1874       C  0.68169083  0.69813463  0.84229011     0.36600
N1875       N  0.73045956  0.55494438  0.86568250    -0.43600
N1876       N  0.67260123  0.72176963  0.84059327    -0.43600
C1877       C  0.91567992  0.76469981  0.89556581     0.00000
C1878       C  0.94290587  0.80335119  0.91282349    -0.11900
C1879       C  0.96634250  0.83475039  0.88036828     0.02200
C1880       C  0.96203311  0.82794833  0.82929966    -0.00100
C1881       C  0.93459681  0.78912848  0.81210064    -0.11800
C1882       C  0.91163835  0.75758578  0.84473233     0.02100
H1883       H  0.94612910  0.80892478  0.95197487     0.15100
H1884       H  0.93051574  0.78359334  0.77299284     0.15100
C1885       C  0.88270620  0.71870399  0.82532727     0.36700
C1886       C  0.99545462  0.87330310  0.90048240     0.36600
N1887       N  0.85937543  0.68752048  0.80994579    -0.43600
N1888       N  0.51878161  0.90427736  0.91640066    -0.43600
C1889       C  0.72948099  0.63918404  0.10933706     0.00000
C1890       C  0.71586785  0.66607522  0.11293262    -0.11900
C1891       C  0.68958318  0.66295194  0.15051181     0.02200
C1892       C  0.67434438  0.63115638  0.18439391    -0.00100
C1893       C  0.68911824  0.60531652  0.18226821    -0.11800
C1894       C  0.71739035  0.60993741  0.14655126     0.02100
H1895       H  0.72589963  0.68994831  0.08638897     0.15100
H1896       H  0.67911646  0.58191144  0.20938020     0.15100
C1897       C  0.73563477  0.58625535  0.15106604     0.36700
C1898       C  0.67894948  0.69296265  0.15358724     0.36600
N1899       N  0.75166717  0.56855845  0.15472973    -0.43600
N1900       N  0.67121486  0.71756619  0.15676365    -0.41600
C1901       C  0.91116908  0.76698426  0.09896321     0.00000
C1902       C  0.91596822  0.80411556  0.09004861    -0.11900
C1903       C  0.94000463  0.83700298  0.12024325     0.02200
C1904       C  0.95978385  0.83289269  0.16212049    -0.00100
C1905       C  0.95451815  0.79475851  0.16979677    -0.11800
C1906       C  0.93195989  0.76274910  0.13794190     0.02100
H1907       H  0.90094770  0.80750704  0.05860846     0.15100
H1908       H  0.96743287  0.78894676  0.20104465     0.15100
C1909       C  0.93134380  0.72612909  0.14577372     0.36700
C1910       C  0.94291006  0.87349733  0.10484155     0.36600
N1911       N  0.93206946  0.69740066  0.15189981    -0.43600
N1912       N  0.94399728  0.90194039  0.09122666    -0.43600
C1913       C  0.53257794  0.66365556  0.83417757     0.00000
C1914       C  0.52322231  0.69383915  0.83954475    -0.11900
C1915       C  0.54498456  0.72674320  0.87105127     0.02200
C1916       C  0.57719808  0.73037901  0.89894821    -0.00100
C1917       C  0.58570333  0.69990584  0.89515628    -0.11800
C1918       C  0.56401138  0.66699542  0.86436777     0.02100
H1919       H  0.99848145  0.69204221  0.81938644     0.15100
H1920       H  0.60984885  0.70150954  0.91687314     0.15100
C1921       C  0.57549214  0.63769747  0.86705775     0.36700
C1922       C  0.53287507  0.75566551  0.87451551     0.36600
N1923       N  0.58499600  0.61462583  0.87294474    -0.43600
N1924       N  0.52297639  0.77870420  0.87726530    -0.43600
C1925       C  0.53745419  0.66782655  0.16889056     0.00000
C1926       C  0.52881329  0.69841650  0.16277083    -0.11900
C1927       C  0.55129957  0.73075798  0.13094838     0.02200
C1928       C  0.58308921  0.73304451  0.10364166    -0.00100
C1929       C  0.59047076  0.70204249  0.10718447    -0.11800
C1930       C  0.56808581  0.66956880  0.13836474     0.02100
H1931       H  0.50423500  0.69734008  0.18269681     0.15100
H1932       H  0.61352242  0.70268667  0.08409023     0.15100
C1933       C  0.57703992  0.63850978  0.13451090     0.36700
C1934       C  0.54208456  0.76185262  0.12828151     0.36600
N1935       N  0.58426335  0.61387171  0.12765892    -0.43600
N1936       N  0.53490975  0.78690806  0.12615468    -0.43600
C1937       C  0.65258155  0.92219285  0.89421710     0.00000
C1938       C  0.63857318  0.94648955  0.91140854    -0.11900
C1939       C  0.63032031  0.96904832  0.87911155     0.02200
C1940       C  0.63507333  0.96673661  0.82812570    -0.00100
C1941       C  0.64953545  0.94264429  0.81114134    -0.11800
C1942       C  0.65852099  0.92073979  0.84361775     0.02100
H1943       H  0.63415714  0.94790486  0.95041615     0.15100
H1944       H  0.65293274  0.94013073  0.77212409     0.15100
C1945       C  0.67155477  0.89531724  0.82383582     0.36700
C1946       C  0.61819676  0.99508003  0.89951334     0.36600
N1947       N  0.68187400  0.87493976  0.80755497    -0.43600
N1948       N  0.60844295  0.01587570  0.91598116    -0.43600
C1949       C  0.83429672  0.85763672  0.84695598     0.00000
C1950       C  0.79494958  0.83855962  0.82778769    -0.11900
C1951       C  0.76249966  0.83355672  0.85570025     0.02200
C1952       C  0.76893635  0.84746086  0.90426205    -0.00100
C1953       C  0.80791967  0.86524085  0.92427295    -0.11800
C1954       C  0.84044832  0.87020759  0.89625054     0.02100
H1955       H  0.78964084  0.82896434  0.79003126     0.15100
H1956       H  0.81295113  0.87520262  0.96207740     0.15100
C1957       C  0.87943759  0.88728676  0.91926096     0.36700
C1958       C  0.72369447  0.81688517  0.83239481     0.36600
N1959       N  0.91055894  0.90081615  0.93801369    -0.43600
N1960       N  0.69277658  0.80376963  0.81327112    -0.43600
C1961       C  0.62849541  0.96700006  0.16470194     0.00000
C1962       C  0.66798220  0.97516320  0.15636547    -0.11900
C1963       C  0.67622333  0.95354188  0.12229037     0.02200
C1964       C  0.64424029  0.92010418  0.09843959    -0.00100
C1965       C  0.60526960  0.91237009  0.10494255    -0.11800
C1966       C  0.59756911  0.93666475  0.13464439     0.02100
H1967       H  0.69317085  0.99919945  0.17535823     0.15100
H1968       H  0.58087562  0.88878703  0.08360871     0.15100
C1969       C  0.55928595  0.93256972  0.12618818     0.36700
C1970       C  0.71784124  0.96692445  0.11212058     0.36600
N1971       N  0.52959642  0.93062432  0.11561713    -0.43600
N1972       N  0.75122900  0.97810000  0.10352557    -0.43600
C1973       C  0.76601286  0.85767342  0.10652330     0.00000
C1974       C  0.78509976  0.83563567  0.10182101    -0.11900
C1975       C  0.81298154  0.83870574  0.13663495     0.02200
C1976       C  0.82430006  0.86606519  0.17531629    -0.00100
C1977       C  0.80406510  0.88653759  0.18149980    -0.11800
C1978       C  0.77426071  0.88166098  0.14855843     0.02100
H1979       H  0.77786367  0.81538476  0.07124689     0.15100
H1980       H  0.81044315  0.90503116  0.21344491     0.15100
C1981       C  0.74987355  0.89791785  0.16183471     0.36700
C1982       C  0.82766781  0.81189842  0.13358048     0.36600
N1983       N  0.72955322  0.90972984  0.17406001    -0.43600
N1984       N  0.83805278  0.78922882  0.13213613    -0.43600
loop_ 
_geom_bond_atom_site_label_1 
_geom_bond_atom_site_label_2 
_geom_bond_distance 
_geom_bond_site_symmetry_2 
_ccdc_geom_bond_type 
O1          Cr19   1.984   1_556  S
O1            C9   1.261       .  A
O2          Cr19   1.983   1_556  S
O2            C3   1.262       .  A
C3            O4   1.265       .  A
C3          C464   1.478       .  S
O4          Cr20   2.006       .  S
O5          Cr20   1.997       .  S
O5            C6   1.266       .  A
C6            O7   1.264       .  A
C6          C449   1.479       .  S
O7          Cr21   1.999       .  S
O8          Cr21   2.005       .  S
O8            C9   1.265       .  A
C9          C428   1.497       .  S
O10         Cr19   1.971       .  S
O10          C18   1.261       .  A
O11         Cr19   1.990       .  S
O11          C12   1.261       .  A
C12          O13   1.265       .  A
C12         C485   1.489       .  S
O13         Cr20   1.997   1_554  S
O14         Cr20   2.000   1_554  S
O14          C15   1.262       .  A
C15          O16   1.264       .  A
C15         C476   1.486       .  S
O16         Cr21   1.986   1_554  S
O17         Cr21   2.007   1_554  S
O17          C18   1.265       .  A
C18         C440   1.477       .  S
Cr19         O22   1.770   1_554  S
Cr20         O22   1.775       .  S
Cr21         O22   1.778       .  S
O23         Cr41   2.004       .  S
O23          C31   1.263       .  A
O24         Cr41   1.981       .  S
O24          C25   1.261       .  A
C25          O26   1.268       .  A
C25         C377   1.487       .  S
O26         Cr42   2.011       .  S
O27         Cr42   1.995       .  S
O27          C28   1.264       .  A
C28          O29   1.261       .  A
C28         C356   1.481       .  S
O29         Cr43   1.989       .  S
O30         Cr43   1.990       .  S
O30          C31   1.262       .  A
C31         C389   1.477       .  S
O32         Cr41   1.977   1_554  S
O32          C40   1.261       .  A
O33         Cr41   2.009   1_554  S
O33          C34   1.265       .  A
C34          O35   1.265       .  A
C34         C401   1.510       .  S
O35         Cr42   2.001   1_554  S
O36         Cr42   2.003   1_554  S
O36          C37   1.263       .  A
C37          O38   1.263       .  A
C37         C365   1.474       .  S
O38         Cr43   1.985   1_554  S
O39         Cr43   1.997   1_554  S
O39          C40   1.261       .  A
C40         C413   1.468       .  S
Cr41         O44   1.781       .  S
Cr42         O44   1.780       .  S
Cr43         O44   1.776       .  S
C45        C1090   1.507       .  S
C45          C46   1.425       .  A
C45        C1538   1.427       .  A
C46          C91   1.501       .  S
C46          C47   1.424       .  A
C47         C549   1.494       .  S
C47        C1536   1.417       .  A
C48        C1072   1.511       .  S
C48          C49   1.438   1_655  A
C48        C1535   1.418   1_545  A
C49          C71   1.503       .  S
C49          C50   1.431       .  A
C50         C558   1.512       .  S
C50        C1533   1.428   1_445  A
C51         C368   1.482       .  S
C51          C52   1.403       .  A
C51          C56   1.401   1_545  A
C52          C53   1.407   1_545  A
C52          H57   1.083       .  S
C53         C543   1.495       .  S
C53         C550   1.401       .  A
C54          C55   1.401       .  A
C54         C549   1.401       .  A
C54          H58   1.082       .  S
C55         C344   1.495       .  S
C55         C552   1.411       .  A
C56         C551   1.411       .  A
C56          H59   1.083       .  S
C60         C473   1.531       .  S
C60          C61   1.409       .  A
C60          C65   1.422       .  A
C61          C62   1.398       .  A
C61          H66   1.071       .  S
C62         C546   1.510       .  S
C62         C559   1.408       .  A
C63          C64   1.422       .  A
C63         C558   1.408       .  A
C63          H67   1.076       .  S
C64         C329   1.538       .  S
C64         C561   1.421       .  A
C65         C560   1.422       .  A
C65          H68   1.072       .  S
C69         C404   1.501       .  S
C69          C70   1.403       .  A
C69          C74   1.410       .  A
C70          C71   1.407       .  A
C70          H75   1.081       .  S
C71          C72   1.398       .  A
C72          C73   1.402       .  A
C72          H76   1.069       .  S
C73         C317   1.511       .  S
C73          C74   1.421       .  A
C74          H77   1.082       .  S
C78         C305   1.506       .  S
C78          C79   1.414       .  A
C78          C83   1.405       .  A
C79          C80   1.414       .  A
C79          H84   1.083       .  S
C80        C1040   1.511       .  S
C80        C1073   1.402       .  A
C81          C82   1.413       .  A
C81        C1072   1.402   1_455  A
C81          H85   1.074       .  S
C82         C437   1.516       .  S
C82        C1075   1.416       .  A
C83        C1074   1.416       .  A
C83          H86   1.081       .  S
C87         C293   1.491       .  S
C87          C88   1.408       .  A
C87          C92   1.406       .  A
C88          C89   1.400       .  A
C88          H93   1.083       .  S
C89         C488   1.479       .  S
C89          C90   1.400       .  A
C90          C91   1.406       .  A
C90          H94   1.084       .  S
C91          C92   1.405       .  A
C92          H95   1.084       .  S
C96         C284   1.504       .  S
C96          C97   1.407       .  A
C96         C101   1.409       .  A
C97          C98   1.401       .  A
C97         H102   1.082       .  S
C98        C1037   1.507   1_455  S
C98        C1091   1.405   1_455  A
C99         C100   1.409       .  A
C99        C1090   1.405       .  A
C99         H103   1.067       .  S
C100        C416   1.523       .  S
C100       C1093   1.418       .  A
C101       C1092   1.418   1_455  A
C101        H104   1.079       .  S
O105       Cr123   1.998       .  S
O105        C113   1.263       .  A
O106       Cr123   2.010       .  S
O106        C107   1.271       .  A
C107        O108   1.261       .  A
C107        C308   1.481       .  S
O108       Cr124   1.976       .  S
O109       Cr124   2.010       .  S
O109        C110   1.267       .  A
C110        O111   1.258       .  A
C110        C296   1.481       .  S
O111       Cr125   1.967       .  S
O112       Cr125   2.016       .  S
O112        C113   1.270       .  A
C113        C332   1.509       .  S
O114       Cr123   2.025       .  S
O114        C122   1.270       .  A
O115       Cr123   1.983       .  S
O115        C116   1.263       .  A
C116        O117   1.261       .  A
C116        C245   1.480       .  S
O117       Cr124   1.993       .  S
O118       Cr124   1.961       .  S
O118        C119   1.255       .  A
C119        O120   1.267       .  A
C119        C272   1.480       .  S
O120       Cr125   2.018       .  S
O121       Cr125   1.965       .  S
O121        C122   1.255       .  A
C122        C260   1.495       .  S
Cr123       O126   1.769       .  S
Cr124       O126   1.780       .  S
Cr125       O126   1.773       .  S
O127       Cr145   2.011       .  S
O127        C135   1.269       .  A
O128       Cr145   1.998       .  S
O128        C129   1.265       .  A
C129        O130   1.268       .  A
C129        C212   1.493       .  S
O130       Cr146   2.023       .  S
O131       Cr146   1.986       .  S
O131        C132   1.261       .  A
C132        O133   1.262       .  A
C132        C224   1.473       .  S
O133       Cr147   2.002       .  S
O134       Cr147   1.978       .  S
O134        C135   1.263       .  A
C135        C233   1.481       .  S
O136       Cr145   1.983       .  S
O136        C144   1.258       .  A
O137       Cr145   2.001       .  S
O137        C138   1.264       .  A
C138        O139   1.259       .  A
C138        C320   1.472       .  S
O139       Cr146   1.983       .  S
O140       Cr146   2.020       .  S
O140        C141   1.270       .  A
C141        O142   1.259       .  A
C141        C281   1.485       .  S
O142       Cr147   1.971       .  S
O143       Cr147   1.995       .  S
O143        C144   1.258       .  A
C144        C341   1.464       .  S
Cr145       O148   1.768       .  S
Cr146       O148   1.773       .  S
Cr147       O148   1.783       .  S
C149       C1185   1.503       .  S
C149        C150   1.429       .  A
C149       C1642   1.428       .  A
C150        C204   1.505       .  S
C150        C151   1.424       .  A
C151        C662   1.511       .  S
C151       C1640   1.432       .  A
C152       C1169   1.486       .  S
C152        C153   1.426   1_655  A
C152       C1639   1.432   1_545  A
C153        C184   1.520       .  S
C153        C154   1.428       .  A
C154        C655   1.503       .  S
C154       C1637   1.428   1_545  A
C155        C452   1.493       .  S
C155        C156   1.402       .  A
C155        C160   1.408       .  A
C156        C653   1.402       .  A
C156        H161   1.084       .  S
C157        C257   1.483       .  S
C157        C158   1.403       .  A
C157        C652   1.402       .  A
C158        C655   1.406       .  A
C158        H162   1.084       .  S
C159        C650   1.503       .  S
C159        C160   1.411       .  A
C159        C654   1.406       .  A
C160        H163   1.082       .  S
C164        C353   1.485       .  S
C164        C165   1.407       .  A
C164        C169   1.400   1_545  A
C165        C166   1.409   1_545  A
C165        H170   1.083       .  S
C166        C647   1.510       .  S
C166        C663   1.415       .  A
C167        C168   1.416       .  A
C167        C662   1.414       .  A
C167        H171   1.083       .  S
C168        C236   1.499       .  S
C168        C665   1.399       .  A
C169        C664   1.400       .  A
C169        H172   1.084       .  S
C173        C248   1.508       .  S
C173        C174   1.415       .  A
C173        C178   1.401       .  A
C174       C1167   1.415       .  A
C174        H179   1.075       .  S
C175        C425   1.523       .  S
C175        C176   1.413       .  A
C175       C1166   1.415   1_455  A
C176       C1169   1.405   1_455  A
C176        H180   1.076       .  S
C177       C1144   1.486       .  S
C177        C178   1.394       .  A
C177       C1168   1.405       .  A
C178        H181   1.077       .  S
C182        C209   1.502       .  S
C182        C183   1.417       .  A
C182        C187   1.408       .  A
C183        C184   1.420       .  A
C183        H188   1.081       .  S
C184        C185   1.404       .  A
C185        C186   1.404       .  A
C185        H189   1.084       .  S
C186        C380   1.496       .  S
C186        C187   1.407       .  A
C187        H190   1.084       .  S
C191        C221   1.490       .  S
C191        C192   1.403       .  A
C191        C196   1.405       .  A
C192        C193   1.404       .  A
C192        H197   1.081       .  S
C193       C1141   1.503       .  S
C193       C1186   1.407   1_455  A
C194        C195   1.406       .  A
C194       C1185   1.407       .  A
C194        H198   1.083       .  S
C195        C392   1.490       .  S
C195       C1188   1.404       .  A
C196       C1187   1.404   1_455  A
C196        H199   1.084       .  S
C200        C269   1.504       .  S
C200        C201   1.408       .  A
C200        C205   1.414       .  A
C201        C202   1.407       .  A
C201        H206   1.081       .  S
C202        C461   1.490       .  S
C202        C203   1.408       .  A
C203        C204   1.405       .  A
C203        H207   1.083       .  S
C204        C205   1.408       .  A
C205        H208   1.083       .  S
C209        C210   1.407       .  A
C209        C214   1.416       .  A
C210        C211   1.412       .  A
C210        H215   1.084       .  S
C211        C212   1.414       .  A
C211        C218   1.443       .  S
C212        C213   1.401       .  A
C213        C214   1.408       .  A
C213        H216   1.082       .  S
C214        C217   1.441       .  S
C217        N219   1.156       .  T
C218        N220   1.157       .  T
C221        C222   1.407       .  A
C221        C226   1.417       .  A
C222        C223   1.399       .  A
C222        H227   1.085       .  S
C223        C224   1.408       .  A
C223        C230   1.443       .  S
C224        C225   1.401       .  A
C225        C226   1.401       .  A
C225        H228   1.085       .  S
C226        C229   1.445       .  S
C229        N231   1.158   1_455  T
C230        N232   1.157       .  T
C233        C234   1.396       .  A
C233        C238   1.412       .  A
C234        C235   1.395       .  A
C234        H239   1.086       .  S
C235        C236   1.406       .  A
C235        C242   1.421       .  S
C236        C237   1.410       .  A
C237        C238   1.408       .  A
C237        H736   1.085       .  S
C238        C241   1.441       .  S
H240        C733   1.085   1_545  S
C241        N243   1.156       .  T
C242        N244   1.148       .  T
C245        C246   1.397       .  A
C245        C250   1.413       .  A
C246        C247   1.397       .  A
C246        H251   1.086       .  S
C247        C248   1.424       .  A
C247        C254   1.437       .  S
C248        C249   1.409       .  A
C249        C250   1.399       .  A
C249        H252   1.084       .  S
C250        C253   1.442       .  S
C253        N255   1.156       .  T
C254        N256   1.156       .  T
C257        C258   1.402       .  A
C257        C262   1.410       .  A
C258        C259   1.402       .  A
C258        H263   1.085       .  S
C259        C260   1.422       .  A
C259        C266   1.445       .  S
C260        C261   1.405       .  A
C261        C262   1.399       .  A
C261        H264   1.080       .  S
C262        C761   1.445   1_545  S
C265        C758   1.445       .  S
C265        N267   1.157       .  T
C266        N268   1.157       .  T
C269        C270   1.409       .  A
C269        C274   1.427       .  A
C270        C271   1.399       .  A
C270        H275   1.082       .  S
C271        C272   1.409       .  A
C271        C278   1.443       .  S
C272        C273   1.398       .  A
C273        C274   1.403       .  A
C273        H276   1.083       .  S
C274        C277   1.444       .  S
C277        N279   1.158       .  T
C278        N280   1.157       .  T
C281        C282   1.401       .  A
C281        C286   1.411       .  A
C282        C283   1.403       .  A
C282        H287   1.084       .  S
C283        C284   1.421       .  A
C283       C1282   1.443       .  S
C284        C285   1.409       .  A
C285        C286   1.401       .  A
C285        H288   1.081       .  S
C286        C289   1.444       .  S
C289        N291   1.157       .  T
C290       C1275   1.443       .  S
C290        N292   1.157       .  T
C293        C294   1.408       .  A
C293        C298   1.415       .  A
C294        C295   1.401       .  A
C294        H299   1.085       .  S
C295        C296   1.412       .  A
C295        C302   1.443       .  S
C296        C297   1.403       .  A
C297        C298   1.399       .  A
C297        H300   1.085       .  S
C298        C301   1.443       .  S
C301        N303   1.157       .  T
C302        N304   1.157       .  T
C305        C306   1.416       .  A
C305        C310   1.410       .  A
C306        C307   1.418       .  A
C306        H311   1.084       .  S
C307        C308   1.415       .  A
C307        C314   1.442       .  S
C308        C309   1.385       .  A
C309        C310   1.386       .  A
C309        H312   1.087       .  S
C310        C313   1.415       .  S
C313        N315   1.147       .  T
C314        N316   1.157       .  T
C317        C318   1.408       .  A
C317        C322   1.434       .  A
C318        C319   1.398       .  A
C318        H323   1.084       .  S
C319        C320   1.405       .  A
C319        C326   1.436       .  S
C320        C321   1.393       .  A
C321        C322   1.400       .  A
C321        H324   1.086       .  S
C322        C325   1.443       .  S
C325        N327   1.158       .  T
C326        N328   1.154       .  T
C329        C330   1.421       .  A
C329        C334   1.424       .  A
C330        C331   1.417       .  A
C330        H335   1.081       .  S
C331        C332   1.417       .  A
C331        C338   1.444       .  S
C332        C333   1.400       .  A
C333        C334   1.400       .  A
C333        H336   1.085       .  S
C334        C337   1.428       .  S
C337        N339   1.152       .  T
C338        N340   1.158       .  T
C341        C342   1.396       .  A
C341        C346   1.405       .  A
C342        C343   1.397       .  A
C342        H347   1.085       .  S
C343        C344   1.424       .  A
C343        C350   1.445       .  S
C344        C345   1.408       .  A
C345        C346   1.397       .  A
C345        H348   1.081       .  S
C346        C349   1.444       .  S
C349        N351   1.157       .  T
C350        N352   1.158       .  T
C353        C354   1.402       .  A
C353        C358   1.415       .  A
C354        C355   1.400       .  A
C354        H359   1.085       .  S
C355        C356   1.414       .  A
C355        C362   1.443       .  S
C356        C357   1.403       .  A
C357        C358   1.405       .  A
C357        H360   1.085       .  S
C358        C361   1.445   1_545  S
C361        N859   1.157       .  T
C362        N364   1.157       .  T
N363        C857   1.157       .  T
C365        C366   1.408       .  A
C365        C370   1.405       .  A
C366        C367   1.405       .  A
C366        H371   1.085       .  S
C367        C368   1.407       .  A
C367        C374   1.444   1_545  S
C368        C369   1.406       .  A
C369        C370   1.397       .  A
C369        H372   1.077       .  S
C370        C373   1.444       .  S
C373        N375   1.157       .  T
C374        N376   1.157       .  T
C377        C378   1.405       .  A
C377        C382   1.413       .  A
C378        C379   1.404       .  A
C378        H383   1.085       .  S
C379        C380   1.413       .  A
C379        C386   1.439       .  S
C380        C381   1.406       .  A
C381        C382   1.402       .  A
C381        H384   1.082       .  S
C382        C385   1.444       .  S
C385        N387   1.157       .  T
C386        N388   1.155       .  T
C389        C390   1.403       .  A
C389        C394   1.408       .  A
C390        C391   1.401       .  A
C390        H395   1.085       .  S
C391        C392   1.414       .  A
C391        C398   1.445       .  S
C392        C393   1.409       .  A
C393        C394   1.403       .  A
C393        H396   1.085       .  S
C394        C397   1.444       .  S
C397        N399   1.157       .  T
C398       N1392   1.157       .  T
N400       C1390   1.157   1_455  T
C401        C402   1.412       .  A
C401        C406   1.418       .  A
C402        C403   1.408       .  A
C402        H407   1.084       .  S
C403        C404   1.412       .  A
C403        C410   1.443       .  S
C404        C405   1.406       .  A
C405        C406   1.409       .  A
C405        H408   1.082       .  S
C406        C409   1.442       .  S
C409        N411   1.157       .  T
C410        N412   1.157       .  T
C413        C414   1.393       .  A
C413        C418   1.399       .  A
C414        C415   1.400       .  A
C414        H419   1.086       .  S
C415        C416   1.434       .  A
C415        C422   1.442       .  S
C416        C417   1.418       .  A
C417        C418   1.398       .  A
C417        H420   1.074       .  S
C418        C421   1.444       .  S
C421        N423   1.157       .  T
C422        N424   1.158       .  T
C425        C426   1.419       .  A
C425        C430   1.424       .  A
C426        C427   1.409       .  A
C426       H1423   1.079   1_455  S
C427        C428   1.410       .  A
C427        C434   1.444       .  S
C428        C429   1.404       .  A
C429        C430   1.397       .  A
C429        H432   1.085       .  S
C430        C433   1.439       .  S
H431       C1418   1.079       .  S
C433        N435   1.156       .  T
C434        N436   1.158       .  T
C437        C438   1.418       .  A
C437        C442   1.427       .  A
C438        C439   1.404       .  A
C438        H443   1.082       .  S
C439        C440   1.407       .  A
C439        C446   1.445       .  S
C440        C441   1.394       .  A
C441        C442   1.396       .  A
C441        H444   1.086       .  S
C442        C445   1.438       .  S
C445        N447   1.156       .  T
C446        N448   1.157       .  T
C449        C450   1.405       .  A
C449        C454   1.407       .  A
C450        C451   1.402       .  A
C450        H455   1.085       .  S
C451        C452   1.414       .  A
C451        C458   1.444       .  S
C452        C453   1.410       .  A
C453        C454   1.402       .  A
C453        H456   1.085       .  S
C454        C457   1.442       .  S
C457        N459   1.157       .  T
C458        N460   1.157       .  T
C461        C462   1.408       .  A
C461        C466   1.411       .  A
C462        C463   1.398       .  A
C462        H467   1.080       .  S
C463        C464   1.406       .  A
C463        C470   1.443       .  S
C464        C465   1.408       .  A
C465        C466   1.403       .  A
C465        H468   1.085       .  S
C466        C469   1.444       .  S
C469        N471   1.157       .  T
C470        N472   1.157       .  T
C473        C474   1.415       .  A
C473        C478   1.430       .  A
C474        C475   1.406       .  A
C474        H479   1.075       .  S
C475        C476   1.411       .  A
C475        C482   1.444       .  S
C476        C477   1.394       .  A
C477        C478   1.399       .  A
C477        H480   1.086       .  S
C478        C481   1.432       .  S
C481        N483   1.155       .  T
C482        N484   1.158       .  T
C485        C486   1.412       .  A
C485        C490   1.412       .  A
C486        C487   1.400       .  A
C486        H491   1.084       .  S
C487        C488   1.403       .  A
C487        C494   1.440       .  S
C488        C489   1.400       .  A
C489        C490   1.400       .  A
C489        H492   1.078       .  S
C490        C493   1.441       .  S
C493        N495   1.156       .  T
C494        N496   1.156       .  T
O497       Cr515   1.984   1_556  S
O497        C505   1.261       .  A
O498       Cr515   1.983   1_556  S
O498        C499   1.262       .  A
C499        O500   1.265       .  A
C499        C960   1.478       .  S
O500       Cr516   2.006       .  S
O501       Cr516   1.997       .  S
O501        C502   1.266       .  A
C502        O503   1.264       .  A
C502        C945   1.479       .  S
O503       Cr517   1.999       .  S
O504       Cr517   2.004       .  S
O504        C505   1.265       .  A
C505        C924   1.497       .  S
O506       Cr515   1.971       .  S
O506        C514   1.261       .  A
O507       Cr515   1.990       .  S
O507        C508   1.261       .  A
C508        O509   1.265       .  A
C508        C981   1.489       .  S
O509       Cr516   1.997   1_554  S
O510       Cr516   2.000   1_554  S
O510        C511   1.263       .  A
C511        O512   1.264       .  A
C511        C972   1.486       .  S
O512       Cr517   1.985   1_554  S
O513       Cr517   2.008   1_554  S
O513        C514   1.265       .  A
C514        C936   1.478       .  S
Cr515       O518   1.770   1_554  S
Cr516       O518   1.775       .  S
Cr517       O518   1.778       .  S
O519       Cr537   2.003       .  S
O519        C527   1.263       .  A
O520       Cr537   1.982       .  S
O520        C521   1.262       .  A
C521        O522   1.268       .  A
C521        C873   1.487       .  S
O522       Cr538   2.012       .  S
O523       Cr538   1.995       .  S
O523        C524   1.265       .  A
C524        O525   1.261       .  A
C524        C852   1.482       .  S
O525       Cr539   1.988       .  S
O526       Cr539   1.992       .  S
O526        C527   1.262       .  A
C527        C885   1.477       .  S
O528       Cr537   1.977   1_554  S
O528        C536   1.261       .  A
O529       Cr537   2.008   1_554  S
O529        C530   1.265       .  A
C530        O531   1.265       .  A
C530        C897   1.510       .  S
O531       Cr538   2.003   1_554  S
O532       Cr538   2.003   1_554  S
O532        C533   1.263       .  A
C533        O534   1.263       .  A
C533        C861   1.475       .  S
O534       Cr539   1.986   1_554  S
O535       Cr539   1.998   1_554  S
O535        C536   1.262       .  A
C536        C909   1.468       .  S
Cr537       O540   1.782       .  S
Cr538       O540   1.780       .  S
Cr539       O540   1.776       .  S
C541       C1586   1.506       .  S
C541        C542   1.425       .  A
C541       C1042   1.428   1_565  A
C542        C587   1.501       .  S
C542        C543   1.425       .  A
C543       C1040   1.418   1_565  A
C544       C1568   1.511       .  S
C544       C1039   1.417       .  A
C544        C545   1.437   1_655  A
C545        C567   1.502       .  S
C545        C546   1.431       .  A
C546       C1037   1.427   1_455  A
C547        C864   1.482       .  S
C547        C548   1.403       .  A
C547        C552   1.401       .  A
C548        C549   1.407       .  A
C548        H553   1.083       .  S
C550        C551   1.402       .  A
C550        H554   1.082       .  S
C551        C840   1.496       .  S
C552        H555   1.083       .  S
C556        C969   1.531       .  S
C556        C557   1.409       .  A
C556        C561   1.423   1_565  A
C557        C558   1.399   1_565  A
C557        H562   1.071       .  S
C559        C560   1.421       .  A
C559        H563   1.076       .  S
C560        C825   1.537       .  S
C561        H564   1.072       .  S
C565        C900   1.502       .  S
C565        C566   1.403       .  A
C565        C570   1.411       .  A
C566        C567   1.406       .  A
C566        H571   1.081       .  S
C567        C568   1.398       .  A
C568        C569   1.402       .  A
C568        H572   1.069       .  S
C569        C813   1.512       .  S
C569        C570   1.422       .  A
C570        H573   1.082       .  S
C574        C801   1.506       .  S
C574        C575   1.414       .  A
C574        C579   1.405       .  A
C575        C576   1.415       .  A
C575        H580   1.083       .  S
C576       C1536   1.511       .  S
C576       C1569   1.402       .  A
C577       C1568   1.402   1_455  A
C577        C578   1.413       .  A
C577        H581   1.074       .  S
C578        C933   1.517       .  S
C578       C1571   1.416       .  A
C579       C1570   1.416       .  A
C579        H582   1.081       .  S
C583        C789   1.493       .  S
C583        C584   1.409       .  A
C583        C588   1.407       .  A
C584        C585   1.401       .  A
C584        H589   1.082       .  S
C585        C984   1.480       .  S
C585        C586   1.400       .  A
C586        C587   1.406       .  A
C586        H590   1.084       .  S
C587        C588   1.404       .  A
C588        H591   1.084       .  S
C592        C780   1.503       .  S
C592        C593   1.406       .  A
C592        C597   1.408       .  A
C593        C594   1.401   1_455  A
C593        H598   1.082       .  S
C594       C1533   1.506       .  S
C594       C1587   1.405       .  A
C595       C1586   1.405       .  A
C595        C596   1.409       .  A
C595        H599   1.068       .  S
C596        C912   1.524       .  S
C596       C1589   1.418       .  A
C597       C1588   1.418   1_455  A
C597        H600   1.079       .  S
O601       Cr619   1.995       .  S
O601        C609   1.263       .  A
O602       Cr619   2.010       .  S
O602        C603   1.271       .  A
C603        O604   1.262       .  A
C603        C804   1.482       .  S
O604       Cr620   1.978       .  S
O605       Cr620   2.011       .  S
O605        C606   1.267       .  A
C606        O607   1.258       .  A
C606        C792   1.483       .  S
O607       Cr621   1.967       .  S
O608       Cr621   2.017       .  S
O608        C609   1.271       .  A
C609        C828   1.508       .  S
O610       Cr619   2.023       .  S
O610        C618   1.270       .  A
O611       Cr619   1.982       .  S
O611        C612   1.263       .  A
C612        O613   1.261       .  A
C612        C741   1.480       .  S
O613       Cr620   1.994       .  S
O614       Cr620   1.963       .  S
O614        C615   1.256       .  A
C615        O616   1.267       .  A
C615        C768   1.481       .  S
O616       Cr621   2.018       .  S
O617       Cr621   1.965       .  S
O617        C618   1.255       .  A
C618        C756   1.493       .  S
Cr619       O622   1.769       .  S
Cr620       O622   1.780       .  S
Cr621       O622   1.773       .  S
O623       Cr641   2.012       .  S
O623        C631   1.270       .  A
O624       Cr641   1.998       .  S
O624        C625   1.264       .  A
C625        O626   1.268       .  A
C625        C708   1.494       .  S
O626       Cr642   2.023       .  S
O627       Cr642   1.987       .  S
O627        C628   1.261       .  A
C628        O629   1.262       .  A
C628        C720   1.474       .  S
O629       Cr643   2.001       .  S
O630       Cr643   1.978       .  S
O630        C631   1.263       .  A
C631        C729   1.482       .  S
O632       Cr641   1.984       .  S
O632        C640   1.258       .  A
O633       Cr641   2.002       .  S
O633        C634   1.264       .  A
C634        O635   1.260       .  A
C634        C816   1.473       .  S
O635       Cr642   1.983       .  S
O636       Cr642   2.021       .  S
O636        C637   1.270       .  A
C637        O638   1.260       .  A
C637        C777   1.486       .  S
O638       Cr643   1.972       .  S
O639       Cr643   1.996       .  S
O639        C640   1.258       .  A
C640        C837   1.465       .  S
Cr641       O644   1.769       .  S
Cr642       O644   1.773       .  S
Cr643       O644   1.784       .  S
C645       C1681   1.503       .  S
C645        C646   1.429       .  A
C645       C1146   1.428   1_565  A
C646        C700   1.506       .  S
C646        C647   1.425       .  A
C647       C1144   1.432   1_565  A
C648       C1665   1.485       .  S
C648       C1143   1.432       .  A
C648        C649   1.426   1_655  A
C649        C680   1.521       .  S
C649        C650   1.428       .  A
C650       C1141   1.428       .  A
C651        C948   1.493       .  S
C651        C652   1.402   1_565  A
C651        C656   1.408       .  A
C652        H657   1.084       .  S
C653        C753   1.483       .  S
C653        C654   1.403       .  A
C654        H658   1.084       .  S
C655        C656   1.411   1_545  A
C656        H659   1.083       .  S
C660        C849   1.485       .  S
C660        C661   1.407       .  A
C660        C665   1.400       .  A
C661        C662   1.410       .  A
C661        H666   1.083       .  S
C663        C664   1.416       .  A
C663        H667   1.083       .  S
C664        C732   1.500       .  S
C665        H668   1.084       .  S
C669        C744   1.507       .  S
C669        C670   1.415       .  A
C669        C674   1.401       .  A
C670       C1663   1.415       .  A
C670        H675   1.075       .  S
C671        C921   1.523       .  S
C671       C1662   1.415   1_455  A
C671        C672   1.412       .  A
C672       C1665   1.404   1_455  A
C672        H676   1.076       .  S
C673       C1640   1.485       .  S
C673       C1664   1.404       .  A
C673        C674   1.394       .  A
C674        H677   1.077       .  S
C678        C705   1.503       .  S
C678        C679   1.417       .  A
C678        C683   1.408       .  A
C679        C680   1.420       .  A
C679        H684   1.081       .  S
C680        C681   1.405       .  A
C681        C682   1.405       .  A
C681        H685   1.084       .  S
C682        C876   1.497       .  S
C682        C683   1.407       .  A
C683        H686   1.084       .  S
C687        C717   1.490       .  S
C687        C688   1.403       .  A
C687        C692   1.406       .  A
C688        C689   1.404       .  A
C688        H693   1.081       .  S
C689       C1637   1.503       .  S
C689       C1682   1.407   1_455  A
C690       C1681   1.407       .  A
C690        C691   1.406       .  A
C690        H694   1.083       .  S
C691        C888   1.491       .  S
C691       C1684   1.404       .  A
C692       C1683   1.404   1_455  A
C692        H695   1.084       .  S
C696        C765   1.505       .  S
C696        C697   1.408       .  A
C696        C701   1.414       .  A
C697        C698   1.407       .  A
C697        H702   1.081       .  S
C698        C957   1.490       .  S
C698        C699   1.408       .  A
C699        C700   1.405       .  A
C699        H703   1.083       .  S
C700        C701   1.408       .  A
C701        H704   1.083       .  S
C705        C706   1.407       .  A
C705        C710   1.416       .  A
C706        C707   1.413       .  A
C706        H711   1.084       .  S
C707        C708   1.414       .  A
C707        C714   1.443       .  S
C708        C709   1.401       .  A
C709        C710   1.408       .  A
C709        H712   1.082       .  S
C710        C713   1.441       .  S
C713        N715   1.156       .  T
C714        N716   1.157       .  T
C717        C718   1.407       .  A
C717        C722   1.417       .  A
C718        C719   1.400       .  A
C718        H723   1.085       .  S
C719        C720   1.408       .  A
C719        C726   1.443       .  S
C720        C721   1.401       .  A
C721        C722   1.401       .  A
C721        H724   1.085       .  S
C722        C725   1.445       .  S
C725        N727   1.158   1_455  T
C726        N728   1.157       .  T
C729        C730   1.396       .  A
C729        C734   1.412       .  A
C730        C731   1.396       .  A
C730        H735   1.086       .  S
C731        C732   1.407       .  A
C731        C738   1.422       .  S
C732        C733   1.410       .  A
C733        C734   1.408       .  A
C734        C737   1.441       .  S
C737        N739   1.156       .  T
C738        N740   1.148       .  T
C741        C742   1.397       .  A
C741        C746   1.412       .  A
C742        C743   1.397       .  A
C742        H747   1.086       .  S
C743        C744   1.424       .  A
C743        C750   1.437       .  S
C744        C745   1.409       .  A
C745        C746   1.399       .  A
C745        H748   1.084       .  S
C746        C749   1.442       .  S
C749        N751   1.156       .  T
C750        N752   1.156       .  T
C753        C754   1.402       .  A
C753        C758   1.410       .  A
C754        C755   1.402       .  A
C754        H759   1.085       .  S
C755        C756   1.422       .  A
C755        C762   1.445       .  S
C756        C757   1.405       .  A
C757        C758   1.398       .  A
C757        H760   1.080       .  S
C761        N763   1.157       .  T
C762        N764   1.157       .  T
C765        C766   1.409       .  A
C765        C770   1.427       .  A
C766        C767   1.399       .  A
C766        H771   1.082       .  S
C767        C768   1.409       .  A
C767        C774   1.442       .  S
C768        C769   1.398       .  A
C769        C770   1.403       .  A
C769        H772   1.083       .  S
C770        C773   1.444       .  S
C773        N775   1.158       .  T
C774        N776   1.157       .  T
C777        C778   1.402       .  A
C777        C782   1.411       .  A
C778        C779   1.403       .  A
C778        H783   1.084       .  S
C779        C780   1.421       .  A
C779       C1778   1.444       .  S
C780        C781   1.409       .  A
C781        C782   1.402       .  A
C781        H784   1.081       .  S
C782        C785   1.444       .  S
C785        N787   1.157       .  T
C786       C1771   1.444       .  S
C786        N788   1.157       .  T
C789        C790   1.409       .  A
C789        C794   1.415       .  A
C790        C791   1.401       .  A
C790        H795   1.085       .  S
C791        C792   1.412       .  A
C791        C798   1.443       .  S
C792        C793   1.404       .  A
C793        C794   1.400       .  A
C793        H796   1.085       .  S
C794        C797   1.443       .  S
C797        N799   1.157       .  T
C798        N800   1.157       .  T
C801        C802   1.416       .  A
C801        C806   1.410       .  A
C802        C803   1.418       .  A
C802        H807   1.084       .  S
C803        C804   1.415       .  A
C803        C810   1.442       .  S
C804        C805   1.385       .  A
C805        C806   1.387       .  A
C805        H808   1.087       .  S
C806        C809   1.416       .  S
C809        N811   1.147       .  T
C810        N812   1.157       .  T
C813        C814   1.408       .  A
C813        C818   1.435       .  A
C814        C815   1.399       .  A
C814        H819   1.083       .  S
C815        C816   1.405       .  A
C815        C822   1.436       .  S
C816        C817   1.393       .  A
C817        C818   1.401       .  A
C817        H820   1.086       .  S
C818        C821   1.444       .  S
C821        N823   1.158       .  T
C822        N824   1.155       .  T
C825        C826   1.420       .  A
C825        C830   1.424       .  A
C826        C827   1.416       .  A
C826        H831   1.081       .  S
C827        C828   1.417       .  A
C827        C834   1.444       .  S
C828        C829   1.399       .  A
C829        C830   1.400       .  A
C829        H832   1.085       .  S
C830        C833   1.429       .  S
C833        N835   1.152       .  T
C834        N836   1.158       .  T
C837        C838   1.396       .  A
C837        C842   1.405       .  A
C838        C839   1.398       .  A
C838        H843   1.085       .  S
C839        C840   1.424       .  A
C839        C846   1.445       .  S
C840        C841   1.408       .  A
C841        C842   1.398       .  A
C841        H844   1.082       .  S
C842        C845   1.444       .  S
C845        N847   1.157       .  T
C846        N848   1.158   1_565  T
C849        C850   1.402       .  A
C849        C854   1.415       .  A
C850        C851   1.400       .  A
C850        H855   1.085       .  S
C851        C852   1.414       .  A
C851        C858   1.443       .  S
C852        C853   1.404       .  A
C853        C854   1.405       .  A
C853        H856   1.085       .  S
C854        C857   1.445       .  S
C858        N860   1.157       .  T
C861        C862   1.408       .  A
C861        C866   1.405       .  A
C862        C863   1.405       .  A
C862        H867   1.085       .  S
C863        C864   1.407       .  A
C863        C870   1.444       .  S
C864        C865   1.405       .  A
C865        C866   1.397       .  A
C865        H868   1.077       .  S
C866        C869   1.444       .  S
C869        N871   1.157       .  T
C870        N872   1.157       .  T
C873        C874   1.405       .  A
C873        C878   1.413       .  A
C874        C875   1.405       .  A
C874        H879   1.085       .  S
C875        C876   1.413       .  A
C875        C882   1.439       .  S
C876        C877   1.406       .  A
C877        C878   1.402       .  A
C877        H880   1.082       .  S
C878        C881   1.444       .  S
C881        N883   1.157       .  T
C882        N884   1.155       .  T
C885        C886   1.403       .  A
C885        C890   1.409       .  A
C886        C887   1.401       .  A
C886        H891   1.085       .  S
C887        C888   1.413       .  A
C887        C894   1.444       .  S
C888        C889   1.409       .  A
C889        C890   1.404       .  A
C889        H892   1.085       .  S
C890        C893   1.444       .  S
C893        N895   1.157       .  T
C894       N1888   1.157       .  T
N896       C1886   1.157   1_455  T
C897        C898   1.412       .  A
C897        C902   1.418       .  A
C898        C899   1.408       .  A
C898        H903   1.084       .  S
C899        C900   1.412       .  A
C899        C906   1.443       .  S
C900        C901   1.406       .  A
C901        C902   1.409       .  A
C901        H904   1.082       .  S
C902        C905   1.442       .  S
C905        N907   1.157       .  T
C906        N908   1.157       .  T
C909        C910   1.393       .  A
C909        C914   1.399       .  A
C910        C911   1.401       .  A
C910        H915   1.086       .  S
C911        C912   1.435       .  A
C911        C918   1.442       .  S
C912        C913   1.419       .  A
C913        C914   1.398       .  A
C913        H916   1.074       .  S
C914        C917   1.443       .  S
C917        N919   1.157       .  T
C918        N920   1.158       .  T
C921        C922   1.419       .  A
C921        C926   1.424       .  A
C922        C923   1.409       .  A
C922       H1919   1.079   1_455  S
C923        C924   1.410       .  A
C923        C930   1.444       .  S
C924        C925   1.404       .  A
C925        C926   1.397       .  A
C925        H928   1.085       .  S
C926        C929   1.439       .  S
H927       C1914   1.079       .  S
C929        N931   1.156       .  T
C930        N932   1.158       .  T
C933        C934   1.418       .  A
C933        C938   1.427       .  A
C934        C935   1.405       .  A
C934        H939   1.082       .  S
C935        C936   1.407       .  A
C935        C942   1.445       .  S
C936        C937   1.394       .  A
C937        C938   1.396       .  A
C937        H940   1.086       .  S
C938        C941   1.438       .  S
C941        N943   1.156       .  T
C942        N944   1.157       .  T
C945        C946   1.405       .  A
C945        C950   1.407       .  A
C946        C947   1.402       .  A
C946        H951   1.085       .  S
C947        C948   1.414       .  A
C947        C954   1.444       .  S
C948        C949   1.410       .  A
C949        C950   1.402       .  A
C949        H952   1.085       .  S
C950        C953   1.442       .  S
C953        N955   1.157       .  T
C954        N956   1.157   1_565  T
C957        C958   1.408       .  A
C957        C962   1.411       .  A
C958        C959   1.398       .  A
C958        H963   1.080       .  S
C959        C960   1.406       .  A
C959        C966   1.443       .  S
C960        C961   1.408       .  A
C961        C962   1.403       .  A
C961        H964   1.085       .  S
C962        C965   1.444       .  S
C965        N967   1.157       .  T
C966        N968   1.157       .  T
C969        C970   1.415       .  A
C969        C974   1.430       .  A
C970        C971   1.406       .  A
C970        H975   1.074       .  S
C971        C972   1.411       .  A
C971        C978   1.445       .  S
C972        C973   1.394       .  A
C973        C974   1.400       .  A
C973        H976   1.086       .  S
C974        C977   1.432       .  S
C977        N979   1.155       .  T
C978        N980   1.158       .  T
C981        C982   1.412       .  A
C981        C986   1.412       .  A
C982        C983   1.400       .  A
C982        H987   1.084       .  S
C983        C984   1.404       .  A
C983        C990   1.441       .  S
C984        C985   1.400       .  A
C985        C986   1.400       .  A
C985        H988   1.078       .  S
C986        C989   1.441       .  S
C989        N991   1.156       .  T
C990        N992   1.156       .  T
O993      Cr1011   1.984   1_556  S
O993       C1001   1.261       .  A
O994      Cr1011   1.983   1_556  S
O994        C995   1.262       .  A
C995        O996   1.265       .  A
C995       C1456   1.478       .  S
O996      Cr1012   2.006       .  S
O997      Cr1012   1.997       .  S
O997        C998   1.266       .  A
C998        O999   1.264       .  A
C998       C1441   1.479       .  S
O999      Cr1013   1.999       .  S
O1000     Cr1013   2.005       .  S
O1000      C1001   1.265       .  A
C1001      C1420   1.497       .  S
O1002     Cr1011   1.971       .  S
O1002      C1010   1.261       .  A
O1003     Cr1011   1.990       .  S
O1003      C1004   1.261       .  A
C1004      O1005   1.265       .  A
C1004      C1477   1.489       .  S
O1005     Cr1012   1.997   1_554  S
O1006     Cr1012   2.000   1_554  S
O1006      C1007   1.263       .  A
C1007      O1008   1.264       .  A
C1007      C1468   1.486       .  S
O1008     Cr1013   1.986   1_554  S
O1009     Cr1013   2.007   1_554  S
O1009      C1010   1.265       .  A
C1010      C1432   1.477       .  S
Cr1011     O1014   1.770   1_554  S
Cr1012     O1014   1.775       .  S
Cr1013     O1014   1.778       .  S
O1015     Cr1033   2.004       .  S
O1015      C1023   1.263       .  A
O1016     Cr1033   1.981       .  S
O1016      C1017   1.261       .  A
C1017      O1018   1.268       .  A
C1017      C1369   1.487       .  S
O1018     Cr1034   2.011       .  S
O1019     Cr1034   1.995       .  S
O1019      C1020   1.264       .  A
C1020      O1021   1.261       .  A
C1020      C1348   1.481       .  S
O1021     Cr1035   1.989       .  S
O1022     Cr1035   1.990       .  S
O1022      C1023   1.262       .  A
C1023      C1381   1.477       .  S
O1024     Cr1033   1.977   1_554  S
O1024      C1032   1.261       .  A
O1025     Cr1033   2.009   1_554  S
O1025      C1026   1.265       .  A
C1026      O1027   1.265       .  A
C1026      C1393   1.510       .  S
O1027     Cr1034   2.001   1_554  S
O1028     Cr1034   2.003   1_554  S
O1028      C1029   1.263       .  A
C1029      O1030   1.263       .  A
C1029      C1357   1.474       .  S
O1030     Cr1035   1.985   1_554  S
O1031     Cr1035   1.997   1_554  S
O1031      C1032   1.261       .  A
C1032      C1405   1.468       .  S
Cr1033     O1036   1.781       .  S
Cr1034     O1036   1.780       .  S
Cr1035     O1036   1.776       .  S
C1037      C1038   1.425       .  A
C1038      C1083   1.501       .  S
C1038      C1039   1.424       .  A
C1039      C1541   1.494       .  S
C1040      C1041   1.438       .  A
C1041      C1063   1.503       .  S
C1041      C1042   1.431       .  A
C1042      C1550   1.512       .  S
C1043      C1360   1.482       .  S
C1043      C1044   1.403       .  A
C1043      C1048   1.401   1_545  A
C1044      C1045   1.407   1_545  A
C1044      H1049   1.083       .  S
C1045      C1535   1.495       .  S
C1045      C1542   1.401       .  A
C1046      C1541   1.401       .  A
C1046      C1047   1.401       .  A
C1046      H1050   1.082       .  S
C1047      C1336   1.495       .  S
C1047      C1544   1.411       .  A
C1048      C1543   1.411       .  A
C1048      H1051   1.083       .  S
C1052      C1465   1.531       .  S
C1052      C1053   1.409       .  A
C1052      C1057   1.422       .  A
C1053      C1054   1.398       .  A
C1053      H1058   1.071       .  S
C1054      C1538   1.510       .  S
C1054      C1551   1.407       .  A
C1055      C1550   1.408       .  A
C1055      C1056   1.422       .  A
C1055      H1059   1.076       .  S
C1056      C1321   1.538       .  S
C1056      C1553   1.421       .  A
C1057      C1552   1.422       .  A
C1057      H1060   1.072       .  S
C1061      C1396   1.501       .  S
C1061      C1062   1.403       .  A
C1061      C1066   1.410       .  A
C1062      C1063   1.407       .  A
C1062      H1067   1.081       .  S
C1063      C1064   1.398       .  A
C1064      C1065   1.402       .  A
C1064      H1068   1.069       .  S
C1065      C1309   1.511       .  S
C1065      C1066   1.421       .  A
C1066      H1069   1.082       .  S
C1070      C1297   1.506       .  S
C1070      C1071   1.414       .  A
C1070      C1075   1.405   1_655  A
C1071      C1072   1.414       .  A
C1071      H1076   1.083       .  S
C1073      C1074   1.413       .  A
C1073      H1077   1.074       .  S
C1074      C1429   1.516       .  S
C1075      H1078   1.081       .  S
C1079      C1285   1.491       .  S
C1079      C1080   1.408       .  A
C1079      C1084   1.406       .  A
C1080      C1081   1.400       .  A
C1080      H1085   1.083       .  S
C1081      C1480   1.479       .  S
C1081      C1082   1.400       .  A
C1082      C1083   1.406       .  A
C1082      H1086   1.084       .  S
C1083      C1084   1.405       .  A
C1084      H1087   1.084       .  S
C1088      C1276   1.504       .  S
C1088      C1089   1.407       .  A
C1088      C1093   1.409       .  A
C1089      C1090   1.401       .  A
C1089      H1094   1.082       .  S
C1091      C1092   1.409       .  A
C1091      H1095   1.067       .  S
C1092      C1408   1.523       .  S
C1093      H1096   1.079       .  S
O1097     Cr1115   1.998       .  S
O1097      C1105   1.263       .  A
O1098     Cr1115   2.010       .  S
O1098      C1099   1.271       .  A
C1099      O1100   1.261       .  A
C1099      C1300   1.481       .  S
O1100     Cr1116   1.976       .  S
O1101     Cr1116   2.010       .  S
O1101      C1102   1.267       .  A
C1102      O1103   1.258       .  A
C1102      C1288   1.481       .  S
O1103     Cr1117   1.967       .  S
O1104     Cr1117   2.016       .  S
O1104      C1105   1.270       .  A
C1105      C1324   1.509       .  S
O1106     Cr1115   2.025       .  S
O1106      C1114   1.270       .  A
O1107     Cr1115   1.983       .  S
O1107      C1108   1.263       .  A
C1108      O1109   1.261       .  A
C1108      C1237   1.480       .  S
O1109     Cr1116   1.993       .  S
O1110     Cr1116   1.961       .  S
O1110      C1111   1.255       .  A
C1111      O1112   1.267       .  A
C1111      C1264   1.480       .  S
O1112     Cr1117   2.018       .  S
O1113     Cr1117   1.965       .  S
O1113      C1114   1.255       .  A
C1114      C1252   1.495       .  S
Cr1115     O1118   1.769       .  S
Cr1116     O1118   1.780       .  S
Cr1117     O1118   1.773       .  S
O1119     Cr1137   2.011       .  S
O1119      C1127   1.269       .  A
O1120     Cr1137   1.998       .  S
O1120      C1121   1.265       .  A
C1121      O1122   1.268       .  A
C1121      C1204   1.493       .  S
O1122     Cr1138   2.023       .  S
O1123     Cr1138   1.986       .  S
O1123      C1124   1.261       .  A
C1124      O1125   1.262       .  A
C1124      C1216   1.473       .  S
O1125     Cr1139   2.002       .  S
O1126     Cr1139   1.978       .  S
O1126      C1127   1.263       .  A
C1127      C1225   1.481       .  S
O1128     Cr1137   1.983       .  S
O1128      C1136   1.258       .  A
O1129     Cr1137   2.001       .  S
O1129      C1130   1.264       .  A
C1130      O1131   1.259       .  A
C1130      C1312   1.472       .  S
O1131     Cr1138   1.983       .  S
O1132     Cr1138   2.020       .  S
O1132      C1133   1.270       .  A
C1133      O1134   1.259       .  A
C1133      C1273   1.485       .  S
O1134     Cr1139   1.971       .  S
O1135     Cr1139   1.995       .  S
O1135      C1136   1.258       .  A
C1136      C1333   1.464       .  S
Cr1137     O1140   1.768       .  S
Cr1138     O1140   1.773       .  S
Cr1139     O1140   1.783       .  S
C1141      C1142   1.429   1_455  A
C1142      C1196   1.505       .  S
C1142      C1143   1.424       .  A
C1143      C1654   1.511       .  S
C1144      C1145   1.426       .  A
C1145      C1176   1.520       .  S
C1145      C1146   1.428       .  A
C1146      C1647   1.503       .  S
C1147      C1444   1.493       .  S
C1147      C1148   1.402       .  A
C1147      C1152   1.408       .  A
C1148      C1645   1.402       .  A
C1148      H1153   1.084       .  S
C1149      C1249   1.483       .  S
C1149      C1644   1.402       .  A
C1149      C1150   1.403       .  A
C1150      C1647   1.406       .  A
C1150      H1154   1.084       .  S
C1151      C1642   1.503       .  S
C1151      C1646   1.406       .  A
C1151      C1152   1.411       .  A
C1152      H1155   1.082       .  S
C1156      C1345   1.485       .  S
C1156      C1157   1.407       .  A
C1156      C1161   1.400   1_545  A
C1157      C1158   1.409   1_545  A
C1157      H1162   1.083       .  S
C1158      C1639   1.510       .  S
C1158      C1655   1.415       .  A
C1159      C1654   1.414       .  A
C1159      C1160   1.416       .  A
C1159      H1163   1.083       .  S
C1160      C1228   1.499       .  S
C1160      C1657   1.399       .  A
C1161      C1656   1.400       .  A
C1161      H1164   1.084       .  S
C1165      C1240   1.508       .  S
C1165      C1166   1.415       .  A
C1165      C1170   1.401       .  A
C1166      H1171   1.075       .  S
C1167      C1417   1.523       .  S
C1167      C1168   1.413       .  A
C1168      H1172   1.076       .  S
C1169      C1170   1.394       .  A
C1170      H1173   1.077       .  S
C1174      C1201   1.502       .  S
C1174      C1175   1.417       .  A
C1174      C1179   1.408       .  A
C1175      C1176   1.420       .  A
C1175      H1180   1.081       .  S
C1176      C1177   1.404       .  A
C1177      C1178   1.404       .  A
C1177      H1181   1.084       .  S
C1178      C1372   1.496       .  S
C1178      C1179   1.407       .  A
C1179      H1182   1.084       .  S
C1183      C1213   1.490       .  S
C1183      C1184   1.403       .  A
C1183      C1188   1.405       .  A
C1184      C1185   1.404       .  A
C1184      H1189   1.081       .  S
C1186      C1187   1.406       .  A
C1186      H1190   1.083       .  S
C1187      C1384   1.490       .  S
C1188      H1191   1.084       .  S
C1192      C1261   1.504       .  S
C1192      C1193   1.408       .  A
C1192      C1197   1.414       .  A
C1193      C1194   1.407       .  A
C1193      H1198   1.081       .  S
C1194      C1453   1.490       .  S
C1194      C1195   1.408       .  A
C1195      C1196   1.405       .  A
C1195      H1199   1.083       .  S
C1196      C1197   1.408       .  A
C1197      H1200   1.083       .  S
C1201      C1202   1.407       .  A
C1201      C1206   1.416       .  A
C1202      C1203   1.412       .  A
C1202      H1207   1.084       .  S
C1203      C1204   1.414       .  A
C1203      C1210   1.443       .  S
C1204      C1205   1.401       .  A
C1205      C1206   1.408       .  A
C1205      H1208   1.082       .  S
C1206      C1209   1.441       .  S
C1209      N1211   1.156       .  T
C1210      N1212   1.157       .  T
C1213      C1214   1.407       .  A
C1213      C1218   1.417       .  A
C1214      C1215   1.399       .  A
C1214      H1219   1.085       .  S
C1215      C1216   1.408       .  A
C1215      C1222   1.443       .  S
C1216      C1217   1.401       .  A
C1217      C1218   1.401       .  A
C1217      H1220   1.085       .  S
C1218      C1221   1.445       .  S
C1221      N1223   1.158       .  T
C1222      N1224   1.157       .  T
C1225      C1226   1.396       .  A
C1225      C1230   1.412       .  A
C1226      C1227   1.395       .  A
C1226      H1231   1.086       .  S
C1227      C1228   1.406       .  A
C1227      C1234   1.421       .  S
C1228      C1229   1.410       .  A
C1229      C1230   1.408       .  A
C1229      H1728   1.085       .  S
C1230      C1233   1.441       .  S
H1232      C1725   1.085   1_545  S
C1233      N1235   1.156       .  T
C1234      N1236   1.148       .  T
C1237      C1238   1.397       .  A
C1237      C1242   1.413       .  A
C1238      C1239   1.397       .  A
C1238      H1243   1.086       .  S
C1239      C1240   1.424       .  A
C1239      C1246   1.437       .  S
C1240      C1241   1.409       .  A
C1241      C1242   1.399       .  A
C1241      H1244   1.083   1_655  S
C1242      C1245   1.442       .  S
C1245      N1247   1.156       .  T
C1246      N1248   1.156       .  T
C1249      C1250   1.402       .  A
C1249      C1254   1.410       .  A
C1250      C1251   1.402       .  A
C1250      H1255   1.085       .  S
C1251      C1252   1.422       .  A
C1251      C1258   1.445       .  S
C1252      C1253   1.405       .  A
C1253      C1254   1.399       .  A
C1253      H1256   1.080       .  S
C1254      C1753   1.445   1_545  S
C1257      C1750   1.445       .  S
C1257      N1259   1.157       .  T
C1258      N1260   1.157       .  T
C1261      C1262   1.409       .  A
C1261      C1266   1.427       .  A
C1262      C1263   1.399       .  A
C1262      H1267   1.082       .  S
C1263      C1264   1.409       .  A
C1263      C1270   1.443       .  S
C1264      C1265   1.398       .  A
C1265      C1266   1.403       .  A
C1265      H1268   1.083       .  S
C1266      C1269   1.444       .  S
C1269      N1271   1.158       .  T
C1270      N1272   1.157       .  T
C1273      C1274   1.401       .  A
C1273      C1278   1.411       .  A
C1274      C1275   1.403       .  A
C1274      H1279   1.084       .  S
C1275      C1276   1.421       .  A
C1276      C1277   1.409       .  A
C1277      C1278   1.401       .  A
C1277      H1280   1.081       .  S
C1278      C1281   1.444       .  S
C1281      N1283   1.157       .  T
C1282      N1284   1.157   1_455  T
C1285      C1286   1.408       .  A
C1285      C1290   1.415       .  A
C1286      C1287   1.401       .  A
C1286      H1291   1.085       .  S
C1287      C1288   1.412       .  A
C1287      C1294   1.443       .  S
C1288      C1289   1.403       .  A
C1289      C1290   1.399       .  A
C1289      H1292   1.085       .  S
C1290      C1293   1.443       .  S
C1293      N1295   1.157       .  T
C1294      N1296   1.157       .  T
C1297      C1298   1.416       .  A
C1297      C1302   1.410       .  A
C1298      C1299   1.418       .  A
C1298      H1303   1.084   1_655  S
C1299      C1300   1.415       .  A
C1299      C1306   1.442       .  S
C1300      C1301   1.385       .  A
C1301      C1302   1.386       .  A
C1301      H1304   1.087       .  S
C1302      C1305   1.415       .  S
C1305      N1307   1.147       .  T
C1306      N1308   1.157   1_655  T
C1309      C1310   1.408       .  A
C1309      C1314   1.434       .  A
C1310      C1311   1.398       .  A
C1310      H1315   1.084       .  S
C1311      C1312   1.405       .  A
C1311      C1318   1.436       .  S
C1312      C1313   1.393       .  A
C1313      C1314   1.400       .  A
C1313      H1316   1.086       .  S
C1314      C1317   1.443       .  S
C1317      N1319   1.158       .  T
C1318      N1320   1.154       .  T
C1321      C1322   1.421       .  A
C1321      C1326   1.424       .  A
C1322      C1323   1.417       .  A
C1322      H1327   1.081       .  S
C1323      C1324   1.417       .  A
C1323      C1330   1.444       .  S
C1324      C1325   1.400       .  A
C1325      C1326   1.400       .  A
C1325      H1328   1.085       .  S
C1326      C1329   1.428       .  S
C1329      N1331   1.152       .  T
C1330      N1332   1.158       .  T
C1333      C1334   1.396       .  A
C1333      C1338   1.405       .  A
C1334      C1335   1.397       .  A
C1334      H1339   1.085       .  S
C1335      C1336   1.424       .  A
C1335      C1342   1.445       .  S
C1336      C1337   1.408       .  A
C1337      C1338   1.397       .  A
C1337      H1340   1.081       .  S
C1338      C1341   1.444       .  S
C1341      N1343   1.157       .  T
C1342      N1344   1.158       .  T
C1345      C1346   1.402       .  A
C1345      C1350   1.415       .  A
C1346      C1347   1.400       .  A
C1346      H1351   1.085       .  S
C1347      C1348   1.414       .  A
C1347      C1354   1.443       .  S
C1348      C1349   1.403       .  A
C1349      C1350   1.405       .  A
C1349      H1352   1.085       .  S
C1350      C1353   1.445   1_545  S
C1353      N1851   1.157       .  T
C1354      N1356   1.157       .  T
N1355      C1849   1.157       .  T
C1357      C1358   1.408       .  A
C1357      C1362   1.405       .  A
C1358      C1359   1.405       .  A
C1358      H1363   1.085       .  S
C1359      C1360   1.407       .  A
C1359      C1366   1.444   1_545  S
C1360      C1361   1.406       .  A
C1361      C1362   1.397       .  A
C1361      H1364   1.077       .  S
C1362      C1365   1.444       .  S
C1365      N1367   1.157       .  T
C1366      N1368   1.157       .  T
C1369      C1370   1.405       .  A
C1369      C1374   1.413       .  A
C1370      C1371   1.404       .  A
C1370      H1375   1.085       .  S
C1371      C1372   1.413       .  A
C1371      C1378   1.439       .  S
C1372      C1373   1.406       .  A
C1373      C1374   1.402       .  A
C1373      H1376   1.082       .  S
C1374      C1377   1.444       .  S
C1377      N1379   1.157       .  T
C1378      N1380   1.155       .  T
C1381      C1382   1.403       .  A
C1381      C1386   1.408       .  A
C1382      C1383   1.401       .  A
C1382      H1387   1.085       .  S
C1383      C1384   1.414       .  A
C1383      C1390   1.445       .  S
C1384      C1385   1.409       .  A
C1385      C1386   1.403       .  A
C1385      H1388   1.085       .  S
C1386      C1389   1.444       .  S
C1389      N1391   1.157       .  T
C1393      C1394   1.412       .  A
C1393      C1398   1.418       .  A
C1394      C1395   1.408       .  A
C1394      H1399   1.084       .  S
C1395      C1396   1.412       .  A
C1395      C1402   1.443       .  S
C1396      C1397   1.406       .  A
C1397      C1398   1.409       .  A
C1397      H1400   1.082       .  S
C1398      C1401   1.442       .  S
C1401      N1403   1.157       .  T
C1402      N1404   1.157       .  T
C1405      C1406   1.393       .  A
C1405      C1410   1.399       .  A
C1406      C1407   1.400       .  A
C1406      H1411   1.086       .  S
C1407      C1408   1.434       .  A
C1407      C1414   1.442       .  S
C1408      C1409   1.418       .  A
C1409      C1410   1.398       .  A
C1409      H1412   1.074       .  S
C1410      C1413   1.444       .  S
C1413      N1415   1.157       .  T
C1414      N1416   1.158       .  T
C1417      C1418   1.419       .  A
C1417      C1422   1.424       .  A
C1418      C1419   1.409       .  A
C1419      C1420   1.410       .  A
C1419      C1426   1.444       .  S
C1420      C1421   1.404       .  A
C1421      C1422   1.397       .  A
C1421      H1424   1.085       .  S
C1422      C1425   1.439       .  S
C1425      N1427   1.156       .  T
C1426      N1428   1.158       .  T
C1429      C1430   1.418       .  A
C1429      C1434   1.427       .  A
C1430      C1431   1.404       .  A
C1430      H1435   1.082       .  S
C1431      C1432   1.407       .  A
C1431      C1438   1.445       .  S
C1432      C1433   1.394       .  A
C1433      C1434   1.396       .  A
C1433      H1436   1.086       .  S
C1434      C1437   1.438       .  S
C1437      N1439   1.156       .  T
C1438      N1440   1.157       .  T
C1441      C1442   1.405       .  A
C1441      C1446   1.407       .  A
C1442      C1443   1.402       .  A
C1442      H1447   1.085       .  S
C1443      C1444   1.414       .  A
C1443      C1450   1.444       .  S
C1444      C1445   1.410       .  A
C1445      C1446   1.402       .  A
C1445      H1448   1.085       .  S
C1446      C1449   1.442       .  S
C1449      N1451   1.157       .  T
C1450      N1452   1.157       .  T
C1453      C1454   1.408       .  A
C1453      C1458   1.411       .  A
C1454      C1455   1.398       .  A
C1454      H1459   1.080       .  S
C1455      C1456   1.406       .  A
C1455      C1462   1.443       .  S
C1456      C1457   1.408       .  A
C1457      C1458   1.403       .  A
C1457      H1460   1.085       .  S
C1458      C1461   1.444       .  S
C1461      N1463   1.157       .  T
C1462      N1464   1.157       .  T
C1465      C1466   1.415       .  A
C1465      C1470   1.430       .  A
C1466      C1467   1.406       .  A
C1466      H1471   1.075       .  S
C1467      C1468   1.411       .  A
C1467      C1474   1.444       .  S
C1468      C1469   1.394       .  A
C1469      C1470   1.399       .  A
C1469      H1472   1.086       .  S
C1470      C1473   1.432       .  S
C1473      N1475   1.155       .  T
C1474      N1476   1.158       .  T
C1477      C1478   1.412       .  A
C1477      C1482   1.412       .  A
C1478      C1479   1.400       .  A
C1478      H1483   1.084       .  S
C1479      C1480   1.403       .  A
C1479      C1486   1.440       .  S
C1480      C1481   1.400       .  A
C1481      C1482   1.400       .  A
C1481      H1484   1.078       .  S
C1482      C1485   1.441       .  S
C1485      N1487   1.156       .  T
C1486      N1488   1.156       .  T
O1489     Cr1507   1.984   1_556  S
O1489      C1497   1.261       .  A
O1490     Cr1507   1.983   1_556  S
O1490      C1491   1.262       .  A
C1491      O1492   1.265       .  A
C1491      C1952   1.478       .  S
O1492     Cr1508   2.006       .  S
O1493     Cr1508   1.997       .  S
O1493      C1494   1.266       .  A
C1494      O1495   1.264       .  A
C1494      C1937   1.479       .  S
O1495     Cr1509   1.999       .  S
O1496     Cr1509   2.004       .  S
O1496      C1497   1.265       .  A
C1497      C1916   1.497       .  S
O1498     Cr1507   1.971       .  S
O1498      C1506   1.261       .  A
O1499     Cr1507   1.990       .  S
O1499      C1500   1.261       .  A
C1500      O1501   1.265       .  A
C1500      C1973   1.489       .  S
O1501     Cr1508   1.997   1_554  S
O1502     Cr1508   2.000   1_554  S
O1502      C1503   1.263       .  A
C1503      O1504   1.264       .  A
C1503      C1964   1.486       .  S
O1504     Cr1509   1.985   1_554  S
O1505     Cr1509   2.008   1_554  S
O1505      C1506   1.265       .  A
C1506      C1928   1.478       .  S
Cr1507     O1510   1.770   1_554  S
Cr1508     O1510   1.775       .  S
Cr1509     O1510   1.778       .  S
O1511     Cr1529   2.003       .  S
O1511      C1519   1.263       .  A
O1512     Cr1529   1.982       .  S
O1512      C1513   1.262       .  A
C1513      O1514   1.268       .  A
C1513      C1865   1.487       .  S
O1514     Cr1530   2.012       .  S
O1515     Cr1530   1.995       .  S
O1515      C1516   1.265       .  A
C1516      O1517   1.261       .  A
C1516      C1844   1.482       .  S
O1517     Cr1531   1.988       .  S
O1518     Cr1531   1.992       .  S
O1518      C1519   1.262       .  A
C1519      C1877   1.477       .  S
O1520     Cr1529   1.977   1_554  S
O1520      C1528   1.261       .  A
O1521     Cr1529   2.008   1_554  S
O1521      C1522   1.265       .  A
C1522      O1523   1.265       .  A
C1522      C1889   1.510       .  S
O1523     Cr1530   2.003   1_554  S
O1524     Cr1530   2.003   1_554  S
O1524      C1525   1.263       .  A
C1525      O1526   1.263       .  A
C1525      C1853   1.475       .  S
O1526     Cr1531   1.986   1_554  S
O1527     Cr1531   1.998   1_554  S
O1527      C1528   1.262       .  A
C1528      C1901   1.468       .  S
Cr1529     O1532   1.782       .  S
Cr1530     O1532   1.780       .  S
Cr1531     O1532   1.776       .  S
C1533      C1534   1.425       .  A
C1534      C1579   1.501       .  S
C1534      C1535   1.425       .  A
C1536      C1537   1.437       .  A
C1537      C1559   1.502       .  S
C1537      C1538   1.431       .  A
C1539      C1856   1.482       .  S
C1539      C1540   1.403       .  A
C1539      C1544   1.401       .  A
C1540      C1541   1.407       .  A
C1540      H1545   1.083       .  S
C1542      C1543   1.402       .  A
C1542      H1546   1.082       .  S
C1543      C1832   1.496       .  S
C1544      H1547   1.083       .  S
C1548      C1961   1.531       .  S
C1548      C1549   1.409       .  A
C1548      C1553   1.423   1_565  A
C1549      C1550   1.399   1_565  A
C1549      H1554   1.071       .  S
C1551      C1552   1.421       .  A
C1551      H1555   1.076       .  S
C1552      C1817   1.537       .  S
C1553      H1556   1.072       .  S
C1557      C1892   1.502       .  S
C1557      C1558   1.403       .  A
C1557      C1562   1.411       .  A
C1558      C1559   1.406       .  A
C1558      H1563   1.081       .  S
C1559      C1560   1.398       .  A
C1560      C1561   1.402       .  A
C1560      H1564   1.069       .  S
C1561      C1805   1.512       .  S
C1561      C1562   1.422       .  A
C1562      H1565   1.082       .  S
C1566      C1793   1.506       .  S
C1566      C1567   1.414       .  A
C1566      C1571   1.405   1_655  A
C1567      C1568   1.415       .  A
C1567      H1572   1.083       .  S
C1569      C1570   1.413       .  A
C1569      H1573   1.074       .  S
C1570      C1925   1.517       .  S
C1571      H1574   1.081       .  S
C1575      C1781   1.493       .  S
C1575      C1576   1.409       .  A
C1575      C1580   1.407       .  A
C1576      C1577   1.401       .  A
C1576      H1581   1.082       .  S
C1577      C1976   1.480       .  S
C1577      C1578   1.400       .  A
C1578      C1579   1.406       .  A
C1578      H1582   1.084       .  S
C1579      C1580   1.404       .  A
C1580      H1583   1.084       .  S
C1584      C1772   1.503       .  S
C1584      C1585   1.406       .  A
C1584      C1589   1.408       .  A
C1585      C1586   1.401       .  A
C1585      H1590   1.082       .  S
C1587      C1588   1.409       .  A
C1587      H1591   1.068       .  S
C1588      C1904   1.524       .  S
C1589      H1592   1.079       .  S
O1593     Cr1611   1.995       .  S
O1593      C1601   1.263       .  A
O1594     Cr1611   2.010       .  S
O1594      C1595   1.271       .  A
C1595      O1596   1.262       .  A
C1595      C1796   1.482       .  S
O1596     Cr1612   1.978       .  S
O1597     Cr1612   2.011       .  S
O1597      C1598   1.267       .  A
C1598      O1599   1.258       .  A
C1598      C1784   1.483       .  S
O1599     Cr1613   1.967       .  S
O1600     Cr1613   2.017       .  S
O1600      C1601   1.271       .  A
C1601      C1820   1.508       .  S
O1602     Cr1611   2.023       .  S
O1602      C1610   1.270       .  A
O1603     Cr1611   1.982       .  S
O1603      C1604   1.263       .  A
C1604      O1605   1.261       .  A
C1604      C1733   1.480       .  S
O1605     Cr1612   1.994       .  S
O1606     Cr1612   1.963       .  S
O1606      C1607   1.256       .  A
C1607      O1608   1.267       .  A
C1607      C1760   1.481       .  S
O1608     Cr1613   2.018       .  S
O1609     Cr1613   1.965       .  S
O1609      C1610   1.255       .  A
C1610      C1748   1.493       .  S
Cr1611     O1614   1.769       .  S
Cr1612     O1614   1.780       .  S
Cr1613     O1614   1.773       .  S
O1615     Cr1633   2.012       .  S
O1615      C1623   1.270       .  A
O1616     Cr1633   1.998       .  S
O1616      C1617   1.264       .  A
C1617      O1618   1.268       .  A
C1617      C1700   1.494       .  S
O1618     Cr1634   2.023       .  S
O1619     Cr1634   1.987       .  S
O1619      C1620   1.261       .  A
C1620      O1621   1.262       .  A
C1620      C1712   1.474       .  S
O1621     Cr1635   2.001       .  S
O1622     Cr1635   1.978       .  S
O1622      C1623   1.263       .  A
C1623      C1721   1.482       .  S
O1624     Cr1633   1.984       .  S
O1624      C1632   1.258       .  A
O1625     Cr1633   2.002       .  S
O1625      C1626   1.264       .  A
C1626      O1627   1.260       .  A
C1626      C1808   1.473       .  S
O1627     Cr1634   1.983       .  S
O1628     Cr1634   2.021       .  S
O1628      C1629   1.270       .  A
C1629      O1630   1.260       .  A
C1629      C1769   1.486       .  S
O1630     Cr1635   1.972       .  S
O1631     Cr1635   1.996       .  S
O1631      C1632   1.258       .  A
C1632      C1829   1.465       .  S
Cr1633     O1636   1.769       .  S
Cr1634     O1636   1.773       .  S
Cr1635     O1636   1.784       .  S
C1637      C1638   1.429   1_455  A
C1638      C1692   1.506       .  S
C1638      C1639   1.425       .  A
C1640      C1641   1.426       .  A
C1641      C1672   1.521       .  S
C1641      C1642   1.428       .  A
C1643      C1940   1.493       .  S
C1643      C1644   1.402   1_565  A
C1643      C1648   1.408       .  A
C1644      H1649   1.084       .  S
C1645      C1745   1.483       .  S
C1645      C1646   1.403       .  A
C1646      H1650   1.084       .  S
C1647      C1648   1.411   1_545  A
C1648      H1651   1.083       .  S
C1652      C1841   1.485       .  S
C1652      C1653   1.407       .  A
C1652      C1657   1.400       .  A
C1653      C1654   1.410       .  A
C1653      H1658   1.083       .  S
C1655      C1656   1.416       .  A
C1655      H1659   1.083       .  S
C1656      C1724   1.500       .  S
C1657      H1660   1.084       .  S
C1661      C1736   1.507       .  S
C1661      C1662   1.415       .  A
C1661      C1666   1.401       .  A
C1662      H1667   1.075       .  S
C1663      C1913   1.523       .  S
C1663      C1664   1.412       .  A
C1664      H1668   1.076       .  S
C1665      C1666   1.394       .  A
C1666      H1669   1.077       .  S
C1670      C1697   1.503       .  S
C1670      C1671   1.417       .  A
C1670      C1675   1.408       .  A
C1671      C1672   1.420       .  A
C1671      H1676   1.081       .  S
C1672      C1673   1.405       .  A
C1673      C1674   1.405       .  A
C1673      H1677   1.084       .  S
C1674      C1868   1.497       .  S
C1674      C1675   1.407       .  A
C1675      H1678   1.084       .  S
C1679      C1709   1.490       .  S
C1679      C1680   1.403       .  A
C1679      C1684   1.406       .  A
C1680      C1681   1.404       .  A
C1680      H1685   1.081       .  S
C1682      C1683   1.406       .  A
C1682      H1686   1.083       .  S
C1683      C1880   1.491       .  S
C1684      H1687   1.084       .  S
C1688      C1757   1.505       .  S
C1688      C1689   1.408       .  A
C1688      C1693   1.414       .  A
C1689      C1690   1.407       .  A
C1689      H1694   1.081       .  S
C1690      C1949   1.490       .  S
C1690      C1691   1.408       .  A
C1691      C1692   1.405       .  A
C1691      H1695   1.083       .  S
C1692      C1693   1.408       .  A
C1693      H1696   1.083       .  S
C1697      C1698   1.407       .  A
C1697      C1702   1.416       .  A
C1698      C1699   1.413       .  A
C1698      H1703   1.084       .  S
C1699      C1700   1.414       .  A
C1699      C1706   1.443       .  S
C1700      C1701   1.401       .  A
C1701      C1702   1.408       .  A
C1701      H1704   1.082       .  S
C1702      C1705   1.441       .  S
C1705      N1707   1.156       .  T
C1706      N1708   1.157       .  T
C1709      C1710   1.407       .  A
C1709      C1714   1.417       .  A
C1710      C1711   1.400       .  A
C1710      H1715   1.085       .  S
C1711      C1712   1.408       .  A
C1711      C1718   1.443       .  S
C1712      C1713   1.401       .  A
C1713      C1714   1.401       .  A
C1713      H1716   1.085       .  S
C1714      C1717   1.445       .  S
C1717      N1719   1.158       .  T
C1718      N1720   1.157       .  T
C1721      C1722   1.396       .  A
C1721      C1726   1.412       .  A
C1722      C1723   1.396       .  A
C1722      H1727   1.086       .  S
C1723      C1724   1.407       .  A
C1723      C1730   1.422       .  S
C1724      C1725   1.410       .  A
C1725      C1726   1.408       .  A
C1726      C1729   1.441       .  S
C1729      N1731   1.156       .  T
C1730      N1732   1.148       .  T
C1733      C1734   1.397       .  A
C1733      C1738   1.412       .  A
C1734      C1735   1.397       .  A
C1734      H1739   1.086       .  S
C1735      C1736   1.424       .  A
C1735      C1742   1.437       .  S
C1736      C1737   1.409       .  A
C1737      C1738   1.399       .  A
C1737      H1740   1.084   1_655  S
C1738      C1741   1.442       .  S
C1741      N1743   1.156       .  T
C1742      N1744   1.156       .  T
C1745      C1746   1.402       .  A
C1745      C1750   1.410       .  A
C1746      C1747   1.402       .  A
C1746      H1751   1.085       .  S
C1747      C1748   1.422       .  A
C1747      C1754   1.445       .  S
C1748      C1749   1.405       .  A
C1749      C1750   1.398       .  A
C1749      H1752   1.080       .  S
C1753      N1755   1.157       .  T
C1754      N1756   1.157       .  T
C1757      C1758   1.409       .  A
C1757      C1762   1.427       .  A
C1758      C1759   1.399       .  A
C1758      H1763   1.082       .  S
C1759      C1760   1.409       .  A
C1759      C1766   1.442       .  S
C1760      C1761   1.398       .  A
C1761      C1762   1.403       .  A
C1761      H1764   1.083       .  S
C1762      C1765   1.444       .  S
C1765      N1767   1.158       .  T
C1766      N1768   1.157       .  T
C1769      C1770   1.402       .  A
C1769      C1774   1.411       .  A
C1770      C1771   1.403       .  A
C1770      H1775   1.084       .  S
C1771      C1772   1.421       .  A
C1772      C1773   1.409       .  A
C1773      C1774   1.402       .  A
C1773      H1776   1.081       .  S
C1774      C1777   1.444       .  S
C1777      N1779   1.157       .  T
C1778      N1780   1.157   1_455  T
C1781      C1782   1.409       .  A
C1781      C1786   1.415       .  A
C1782      C1783   1.401       .  A
C1782      H1787   1.085       .  S
C1783      C1784   1.412       .  A
C1783      C1790   1.443       .  S
C1784      C1785   1.404       .  A
C1785      C1786   1.400       .  A
C1785      H1788   1.085       .  S
C1786      C1789   1.443       .  S
C1789      N1791   1.157       .  T
C1790      N1792   1.157       .  T
C1793      C1794   1.416       .  A
C1793      C1798   1.410       .  A
C1794      C1795   1.418       .  A
C1794      H1799   1.084   1_655  S
C1795      C1796   1.415       .  A
C1795      C1802   1.442       .  S
C1796      C1797   1.385       .  A
C1797      C1798   1.387       .  A
C1797      H1800   1.087       .  S
C1798      C1801   1.416       .  S
C1801      N1803   1.147       .  T
C1802      N1804   1.157   1_655  T
C1805      C1806   1.408       .  A
C1805      C1810   1.435       .  A
C1806      C1807   1.399       .  A
C1806      H1811   1.083       .  S
C1807      C1808   1.405       .  A
C1807      C1814   1.436       .  S
C1808      C1809   1.393       .  A
C1809      C1810   1.401       .  A
C1809      H1812   1.086       .  S
C1810      C1813   1.444       .  S
C1813      N1815   1.158       .  T
C1814      N1816   1.155       .  T
C1817      C1818   1.420       .  A
C1817      C1822   1.424       .  A
C1818      C1819   1.416       .  A
C1818      H1823   1.081       .  S
C1819      C1820   1.417       .  A
C1819      C1826   1.444       .  S
C1820      C1821   1.399       .  A
C1821      C1822   1.400       .  A
C1821      H1824   1.085       .  S
C1822      C1825   1.429       .  S
C1825      N1827   1.152       .  T
C1826      N1828   1.158       .  T
C1829      C1830   1.396       .  A
C1829      C1834   1.405       .  A
C1830      C1831   1.398       .  A
C1830      H1835   1.085       .  S
C1831      C1832   1.424       .  A
C1831      C1838   1.445       .  S
C1832      C1833   1.408       .  A
C1833      C1834   1.398       .  A
C1833      H1836   1.082       .  S
C1834      C1837   1.444       .  S
C1837      N1839   1.157       .  T
C1838      N1840   1.158   1_565  T
C1841      C1842   1.402       .  A
C1841      C1846   1.415       .  A
C1842      C1843   1.400       .  A
C1842      H1847   1.085       .  S
C1843      C1844   1.414       .  A
C1843      C1850   1.443       .  S
C1844      C1845   1.404       .  A
C1845      C1846   1.405       .  A
C1845      H1848   1.085       .  S
C1846      C1849   1.445       .  S
C1850      N1852   1.157       .  T
C1853      C1854   1.408       .  A
C1853      C1858   1.405       .  A
C1854      C1855   1.405       .  A
C1854      H1859   1.085       .  S
C1855      C1856   1.407       .  A
C1855      C1862   1.444       .  S
C1856      C1857   1.405       .  A
C1857      C1858   1.397       .  A
C1857      H1860   1.077       .  S
C1858      C1861   1.444       .  S
C1861      N1863   1.157       .  T
C1862      N1864   1.157       .  T
C1865      C1866   1.405       .  A
C1865      C1870   1.413       .  A
C1866      C1867   1.405       .  A
C1866      H1871   1.085       .  S
C1867      C1868   1.413       .  A
C1867      C1874   1.439       .  S
C1868      C1869   1.406       .  A
C1869      C1870   1.402       .  A
C1869      H1872   1.082       .  S
C1870      C1873   1.444       .  S
C1873      N1875   1.157       .  T
C1874      N1876   1.155       .  T
C1877      C1878   1.403       .  A
C1877      C1882   1.409       .  A
C1878      C1879   1.401       .  A
C1878      H1883   1.085       .  S
C1879      C1880   1.413       .  A
C1879      C1886   1.444       .  S
C1880      C1881   1.409       .  A
C1881      C1882   1.404       .  A
C1881      H1884   1.085       .  S
C1882      C1885   1.444       .  S
C1885      N1887   1.157       .  T
C1889      C1890   1.412       .  A
C1889      C1894   1.418       .  A
C1890      C1891   1.408       .  A
C1890      H1895   1.084       .  S
C1891      C1892   1.412       .  A
C1891      C1898   1.443       .  S
C1892      C1893   1.406       .  A
C1893      C1894   1.409       .  A
C1893      H1896   1.082       .  S
C1894      C1897   1.442       .  S
C1897      N1899   1.157       .  T
C1898      N1900   1.157       .  T
C1901      C1902   1.393       .  A
C1901      C1906   1.399       .  A
C1902      C1903   1.401       .  A
C1902      H1907   1.086       .  S
C1903      C1904   1.435       .  A
C1903      C1910   1.442       .  S
C1904      C1905   1.419       .  A
C1905      C1906   1.398       .  A
C1905      H1908   1.074       .  S
C1906      C1909   1.443       .  S
C1909      N1911   1.157       .  T
C1910      N1912   1.158       .  T
C1913      C1914   1.419       .  A
C1913      C1918   1.424       .  A
C1914      C1915   1.409       .  A
C1915      C1916   1.410       .  A
C1915      C1922   1.444       .  S
C1916      C1917   1.404       .  A
C1917      C1918   1.397       .  A
C1917      H1920   1.085       .  S
C1918      C1921   1.439       .  S
C1921      N1923   1.156       .  T
C1922      N1924   1.158       .  T
C1925      C1926   1.418       .  A
C1925      C1930   1.427       .  A
C1926      C1927   1.405       .  A
C1926      H1931   1.082       .  S
C1927      C1928   1.407       .  A
C1927      C1934   1.445       .  S
C1928      C1929   1.394       .  A
C1929      C1930   1.396       .  A
C1929      H1932   1.086       .  S
C1930      C1933   1.438       .  S
C1933      N1935   1.156       .  T
C1934      N1936   1.157       .  T
C1937      C1938   1.405       .  A
C1937      C1942   1.407       .  A
C1938      C1939   1.402       .  A
C1938      H1943   1.085       .  S
C1939      C1940   1.414       .  A
C1939      C1946   1.444       .  S
C1940      C1941   1.410       .  A
C1941      C1942   1.402       .  A
C1941      H1944   1.085       .  S
C1942      C1945   1.442       .  S
C1945      N1947   1.157       .  T
C1946      N1948   1.157   1_565  T
C1949      C1950   1.408       .  A
C1949      C1954   1.411       .  A
C1950      C1951   1.398       .  A
C1950      H1955   1.080       .  S
C1951      C1952   1.406       .  A
C1951      C1958   1.443       .  S
C1952      C1953   1.408       .  A
C1953      C1954   1.403       .  A
C1953      H1956   1.085       .  S
C1954      C1957   1.444       .  S
C1957      N1959   1.157       .  T
C1958      N1960   1.157       .  T
C1961      C1962   1.415       .  A
C1961      C1966   1.430       .  A
C1962      C1963   1.406       .  A
C1962      H1967   1.074       .  S
C1963      C1964   1.411       .  A
C1963      C1970   1.445       .  S
C1964      C1965   1.394       .  A
C1965      C1966   1.400       .  A
C1965      H1968   1.086       .  S
C1966      C1969   1.432       .  S
C1969      N1971   1.155       .  T
C1970      N1972   1.158       .  T
C1973      C1974   1.412       .  A
C1973      C1978   1.412       .  A
C1974      C1975   1.400       .  A
C1974      H1979   1.084       .  S
C1975      C1976   1.404       .  A
C1975      C1982   1.441       .  S
C1976      C1977   1.400       .  A
C1977      C1978   1.400       .  A
C1977      H1980   1.078       .  S
C1978      C1981   1.441       .  S
C1981      N1983   1.156       .  T
C1982      N1984   1.156       .  T
