geometry optimzed in LAMMPS
_audit_creation_date              2020-11-30 
_audit_creation_method            'lammps2cif' 
_symmetry_space_group_name_H-M    'P1' 
_symmetry_Int_Tables_number       1 
_symmetry_cell_setting            triclinic 
loop_ 
_symmetry_equiv_pos_as_xyz 
  x,y,z 
_cell_length_a                    32.02264383 
_cell_length_b                    33.91682278626637 
_cell_length_c                    60.3362225753809 
_cell_angle_alpha                 89.91225939106093 
_cell_angle_beta                  90.98724440594195 
_cell_angle_gamma                 90.35838244329796 
loop_ 
_atom_site_label 
_atom_site_type_symbol 
_atom_site_fract_x 
_atom_site_fract_y 
_atom_site_fract_z 
_atom_site_charge 
N1          N  0.40859364  0.24584123  0.34590680    -0.34900
N2          N  0.39727468  0.18635026  0.38027270    -0.55500
N3          N  0.37876958  0.24748332  0.41254087    -0.34900
N4          N  0.39485383  0.30702529  0.37908503    -0.55500
C5          C  0.42344359  0.21340108  0.33553510     0.28700
C6          C  0.42196246  0.27833278  0.33483011     0.28700
C7          C  0.38365324  0.21581278  0.42594893     0.28700
C8          C  0.38263332  0.28004322  0.42535530     0.28700
C9          C  0.39763742  0.16292939  0.36214709     0.37300
C10         C  0.38188815  0.16402208  0.39687093     0.37300
C11         C  0.39412725  0.32917857  0.36042490     0.37300
C12         C  0.37932923  0.32996443  0.39528364     0.37300
C13         C  0.44616318  0.22543845  0.31732824    -0.20200
C14         C  0.44522820  0.26633727  0.31688262    -0.20200
C15         C  0.39091631  0.22835754  0.44754721    -0.20200
C16         C  0.39026751  0.26895306  0.44717153    -0.20200
C17         C  0.38248578  0.12569065  0.36727838    -0.21300
C18         C  0.37229258  0.12644491  0.38919628    -0.21200
C19         C  0.37807362  0.36618942  0.36482575    -0.21300
C20         C  0.36864329  0.36666071  0.38684256    -0.21200
C21         C  0.41478546  0.17350543  0.34157373    -0.16600
C22         C  0.41165364  0.31811418  0.34006812    -0.16600
C23         C  0.37706577  0.31923675  0.41787468    -0.16600
C24         C  0.37922546  0.17605759  0.41921625    -0.16600
H25         H  0.46163583  0.20672398  0.30554156     0.16300
H26         H  0.45985798  0.28507087  0.30468623     0.16300
H27         H  0.39601234  0.21020037  0.46209491     0.16300
H28         H  0.39477960  0.28806536  0.46136762     0.16300
H29         H  0.37938181  0.10044106  0.35641323     0.14600
H30         H  0.35958209  0.10189581  0.39841321     0.14600
H31         H  0.37404690  0.39059069  0.35342430     0.14600
H32         H  0.35564862  0.39142304  0.39560082     0.14600
H33         H  0.38696796  0.24571925  0.35854991     0.27900
H34         H  0.36852920  0.24677983  0.39609085     0.27900
N35         N  0.11580282  0.18590505  0.38226264    -0.34900
N36         N  0.08592545  0.24454394  0.35072263    -0.55500
N37         N  0.11352759  0.30461886  0.38206396    -0.34900
N38         N  0.13950526  0.24606333  0.41473461    -0.55500
C39         C  0.09439151  0.16291324  0.36764472     0.28700
C40         C  0.12219117  0.16417004  0.40083168     0.28700
C41         C  0.09038033  0.32622971  0.36759742     0.28700
C42         C  0.11909666  0.32662680  0.40059301     0.28700
C43         C  0.08316342  0.21222537  0.33755607     0.37300
C44         C  0.08169119  0.27670284  0.33749876     0.37300
C45         C  0.16032563  0.21459650  0.42289962     0.37300
C46         C  0.15971982  0.27833159  0.42258597     0.37300
C47         C  0.08664654  0.12636176  0.37713445    -0.20200
C48         C  0.10397637  0.12722159  0.39809920    -0.20200
C49         C  0.08045256  0.36202746  0.37720168    -0.20200
C50         C  0.09846042  0.36223271  0.39804248    -0.20200
C51         C  0.07581631  0.22388509  0.31580252    -0.21300
C52         C  0.07488906  0.26470634  0.31576646    -0.21200
C53         C  0.19408178  0.22685132  0.43587205    -0.21300
C54         C  0.19380059  0.26731175  0.43560538    -0.21200
C55         C  0.08538871  0.17259684  0.34531020    -0.16600
C56         C  0.14824740  0.17513533  0.41897946    -0.16600
C57         C  0.14647813  0.31731328  0.41846015    -0.16600
C58         C  0.08217867  0.31638658  0.34520432    -0.16600
H59         H  0.07089691  0.10132937  0.36956423     0.16300
H60         H  0.10420258  0.10291145  0.40974306     0.16300
H61         H  0.06293822  0.38595368  0.36973766     0.16300
H62         H  0.09752894  0.38639272  0.40971995     0.16300
H63         H  0.07132740  0.20498658  0.30150970     0.14600
H64         H  0.06951459  0.28336638  0.30144527     0.14600
H65         H  0.21721954  0.20871028  0.44417368     0.14600
H66         H  0.21675928  0.28621241  0.44365038     0.14600
H67         H  0.13045685  0.21250871  0.37862766     0.27900
H68         H  0.12991185  0.27920273  0.37826714     0.27900
O69         O  0.17893062  0.41887286  0.45699010    -0.73600
O70         O  0.21315593  0.37939791  0.48187248    -0.52500
C71         C  0.18857802  0.38496618  0.46509115     0.80100
O72         O  0.33534749  0.07728216  0.45405599    -0.58200
O73         O  0.30196409  0.11638629  0.47879231    -0.51200
C74         C  0.32596650  0.11112028  0.46224254     0.72100
O75         O  0.33108842  0.41856959  0.45168745    -0.72800
O76         O  0.29976971  0.37911987  0.47726471    -0.53300
C77         C  0.32260717  0.38462883  0.46021155     0.78100
O78         O  0.17733589  0.07523915  0.45891429    -0.57900
O79         O  0.21477591  0.11528588  0.48235175    -0.51000
C80         C  0.18824120  0.10929224  0.46646953     0.74700
Zr81       Zr  0.19018071  0.48804239  0.46572070     2.54700
O82         O  0.17618799  0.48129386  0.42612953    -0.78500
O83         O  0.11941522  0.00396133  0.47313616    -0.91900
Zr84       Zr  0.31323207  0.48766142  0.45754620     2.64700
O85         O  0.30109032  0.47103460  0.41864106    -0.96800
O86         O  0.39390135  0.00553121  0.45838664    -0.78900
O87         O  0.25228915  0.45071785  0.46480942    -0.82300
O88         O  0.25626552  0.04380991  0.46519388    -2.17000
O89         O  0.19496746  0.04626243  0.55016079    -0.65600
O90         O  0.22422086  0.09840977  0.53199369    -0.50200
C91         C  0.20366729  0.08313600  0.54806400     0.73100
O92         O  0.34190694  0.45062955  0.54420737    -0.58600
O93         O  0.31236552  0.39718711  0.52698311    -0.50500
C94         C  0.33482546  0.41345278  0.54236260     0.74900
O95         O  0.34593637  0.04763717  0.54393937    -0.69900
O96         O  0.31278990  0.09949083  0.52715963    -0.48600
C97         C  0.33726119  0.08447471  0.54196108     0.76300
O98         O  0.20085757  0.44843378  0.55129803    -0.65300
O99         O  0.22442659  0.39611801  0.53139874    -0.52500
C100        C  0.20724423  0.41147432  0.54839976     0.74700
Zr101      Zr  0.20639970  0.98602765  0.52906041     2.77500
O102        O  0.20909934  0.52038517  0.56932322    -0.96000
O103        O  0.13092303  0.50363487  0.52920475    -0.76800
Zr104      Zr  0.33071714  0.98728974  0.52322505     2.70100
O105        O  0.35214396  0.97346881  0.56134854    -0.78100
O106        O  0.40193876  0.50217449  0.50862885    -0.97200
Zr107      Zr  0.26176427  0.42383146  0.50075535     2.21500
Zr108      Zr  0.26266825  0.07101664  0.50143337     2.11100
O109        O  0.26897821  0.02311447  0.53019703    -2.45900
O110        O  0.26952514  0.47185009  0.52922122    -0.77900
O111        O  0.19876112  0.03465755  0.50094725    -0.70100
O112        O  0.32410600  0.45987390  0.49324229    -2.31000
O113        O  0.19794723  0.45980073  0.50148626    -2.27200
O114        O  0.32575900  0.03594642  0.49501883    -0.71800
H115        H  0.25437263  0.06418305  0.45404126     0.80200
H116        H  0.34812780  0.44291909  0.49353316     0.81200
H117        H  0.27127489  0.03509931  0.54464063     0.83500
H118        H  0.17465500  0.44275287  0.50463988     0.81100
H119        H  0.39717594  0.51569381  0.46056462     0.44100
H120        H  0.41166296  0.01986315  0.51622932     0.43100
H121        H  0.33663216  0.53291240  0.56633372     0.42800
H122        H  0.23320042  0.98840935  0.57443195     0.40700
H123        H  0.12220601  0.96537626  0.53892184     0.43800
H124        H  0.10546777  0.46163452  0.46402495     0.38600
H125        H  0.20265421  0.47121365  0.42012304     0.44700
H126        H  0.29400371  0.04422410  0.41825961     0.41100
H127        H  0.18527422  0.97855372  0.57467292     0.46100
H128        H  0.10380584  0.50655377  0.46985449     0.44800
H129        H  0.32923555  0.46610463  0.41274025     0.44900
H130        H  0.41887562  0.97701081  0.52514363     0.45300
N131        N  0.38457690  0.18821008  0.61088478    -0.34900
N132        N  0.39588894  0.24717823  0.64458353    -0.55500
N133        N  0.38702793  0.30888342  0.61197131    -0.34900
N134        N  0.37835443  0.24964034  0.57757013    -0.55500
C135        C  0.40072403  0.16687586  0.62785027     0.28700
C136        C  0.39207696  0.16825306  0.59204797     0.28700
C137        C  0.40594759  0.32867899  0.62884658     0.28700
C138        C  0.39154544  0.33079803  0.59342986     0.28700
C139        C  0.39072436  0.21536724  0.65760842     0.37300
C140        C  0.39584618  0.27862080  0.65813650     0.37300
C141        C  0.36496070  0.21795772  0.56580096     0.37300
C142        C  0.36402139  0.28173249  0.56660842     0.37300
C143        C  0.41907235  0.13301861  0.61977518    -0.20200
C144        C  0.41424058  0.13423924  0.59705975    -0.20200
C145        C  0.42259072  0.36372873  0.62097223    -0.20200
C146        C  0.41368485  0.36497032  0.59855889    -0.20200
C147        C  0.38663253  0.22660389  0.67955712    -0.21300
C148        C  0.39021805  0.26688260  0.67990897    -0.21200
C149        C  0.34194573  0.22997437  0.54734860    -0.21300
C150        C  0.34126232  0.27034239  0.54788948    -0.21200
C151        C  0.39730109  0.17677543  0.65037987    -0.16600
C152        C  0.37533470  0.17858359  0.57102434    -0.16600
C153        C  0.37406624  0.32103234  0.57241630    -0.16600
C154        C  0.40615414  0.31686624  0.65128356    -0.16600
H155        H  0.43431386  0.10992497  0.62924187     0.16300
H156        H  0.42513986  0.11220127  0.58560720     0.16300
H157        H  0.43925466  0.38613791  0.63039953     0.16300
H158        H  0.42267050  0.38834678  0.58735604     0.16300
H159        H  0.38367806  0.20766679  0.69391097     0.14600
H160        H  0.39018320  0.28527320  0.69455401     0.14600
H161        H  0.32686092  0.21178318  0.53482535     0.14600
H162        H  0.32563281  0.28899099  0.53582356     0.14600
H163        H  0.36497123  0.21245196  0.61232110     0.27900
H164        H  0.36808806  0.28396478  0.61334769     0.27900
N165        N  0.15439268  0.30975386  0.61809215    -0.34900
N166        N  0.13576989  0.25024761  0.64986122    -0.55500
N167        N  0.15450260  0.18803201  0.61862965    -0.34900
N168        N  0.17317449  0.24765622  0.58658465    -0.55500
C169        C  0.13007768  0.32981250  0.63221476     0.28700
C170        C  0.15275298  0.32874581  0.59845155     0.28700
C171        C  0.13041616  0.16898619  0.63339127     0.28700
C172        C  0.15285057  0.16720702  0.59952283     0.28700
C173        C  0.13314879  0.28222465  0.66295175     0.37300
C174        C  0.13370893  0.21873486  0.66333768     0.37300
C175        C  0.19071056  0.27939515  0.57690925     0.37300
C176        C  0.19018799  0.21576329  0.57699779     0.37300
C177        C  0.11276570  0.36211431  0.62147419    -0.20200
C178        C  0.12678408  0.36121762  0.60000499    -0.20200
C179        C  0.11327819  0.13543863  0.62365506    -0.20200
C180        C  0.12705447  0.13457021  0.60213668    -0.20200
C181        C  0.13084344  0.27112007  0.68501230    -0.21300
C182        C  0.13122481  0.23068383  0.68526679    -0.21200
C183        C  0.21977510  0.26770100  0.56148694    -0.21300
C184        C  0.21939081  0.22724751  0.56151848    -0.21200
C185        C  0.12476735  0.32000652  0.65468087    -0.16600
C186        C  0.17654172  0.31816856  0.57990678    -0.16600
C187        C  0.17580957  0.17695608  0.58041881    -0.16600
C188        C  0.12532267  0.18050742  0.65562207    -0.16600
H189        H  0.09202931  0.38383682  0.62833471     0.16300
H190        H  0.11869291  0.38208756  0.58707281     0.16300
H191        H  0.09276069  0.11399514  0.63120988     0.16300
H192        H  0.11860331  0.11257413  0.58986984     0.16300
H193        H  0.12652787  0.29002236  0.69921984     0.14600
H194        H  0.12717503  0.21223181  0.69973562     0.14600
H195        H  0.23857903  0.28629626  0.55095174     0.14600
H196        H  0.23793342  0.20853385  0.55107137     0.14600
H197        H  0.17458566  0.28675694  0.62216822     0.27900
H198        H  0.17431659  0.21181091  0.62211269     0.27900
O199        O  0.42944884  0.08849397  0.27946982    -0.73600
O200        O  0.45803187  0.04893672  0.30654639    -0.52500
C201        C  0.43882196  0.08046055  0.29978459     0.80100
O202        O  0.41200331  0.42226183  0.20526389    -0.58200
O203        O  0.45360054  0.45133317  0.17933779    -0.51200
C204        C  0.42143429  0.43110055  0.18526824     0.72100
O205        O  0.42587746  0.40497184  0.27809834    -0.72800
O206        O  0.45483377  0.44337948  0.30566138    -0.53300
C207        C  0.43527990  0.41206948  0.29849422     0.78100
O208        O  0.41658107  0.07713668  0.20539955    -0.57900
O209        O  0.45770473  0.04825520  0.17943901    -0.51000
C210        C  0.42637586  0.06937599  0.18527305     0.74700
Zr211      Zr  0.44153594  0.06082004  0.24283601     2.54700
O212        O  0.36586710  0.05909064  0.24593323    -0.78500
O213        O  0.44435549  0.13221431  0.23855244    -0.91900
Zr214      Zr  0.43827482  0.43591863  0.24243976     2.64700
O215        O  0.36349733  0.44409912  0.24705666    -0.96800
O216        O  0.43330198  0.36492062  0.23705251    -0.78900
O217        O  0.43688742  0.00116563  0.26402801    -0.82300
O218        O  0.44141434  0.00440334  0.22047608    -2.17000
O219        O  0.10006669  0.07103691  0.21113275    -0.65600
O220        O  0.05921706  0.04425407  0.18338773    -0.50200
C221        C  0.09156183  0.06347229  0.19070420     0.73100
O222        O  0.07464675  0.40341907  0.28278556    -0.58600
O223        O  0.04351029  0.44171036  0.30905569    -0.50500
C224        C  0.06352376  0.41057651  0.30276986     0.74900
O225        O  0.09396541  0.41876929  0.20952082    -0.69900
O226        O  0.05513729  0.44954912  0.18246964    -0.48600
C227        C  0.08609743  0.42801609  0.18913625     0.76300
O228        O  0.07903779  0.08531335  0.28334836    -0.65300
O229        O  0.04567898  0.04752685  0.30921248    -0.52500
C230        C  0.06691521  0.07829312  0.30317609     0.74700
Zr231      Zr  0.06952733  0.05609553  0.24670027     2.77500
O232        O  0.14388432  0.04682677  0.25418989    -0.96000
O233        O  0.07466607  0.12740473  0.24307112    -0.76800
Zr234      Zr  0.06473382  0.43265018  0.24608694     2.70100
O235        O  0.14024775  0.43134084  0.25138804    -0.78100
O236        O  0.05820718  0.36137851  0.24224971    -0.97200
Zr237      Zr  0.00454275  0.99775481  0.28815261     2.21500
Zr238      Zr  0.00603057  0.00319526  0.20111946     2.11100
O239        O  0.06768614  0.99999897  0.22383595    -2.45900
O240        O  0.06831641  0.99640536  0.26764359    -0.77900
O241        O  0.00812827  0.06129344  0.22359809    -0.70100
O242        O  0.00269395  0.43572437  0.26620585    -2.31000
O243        O  0.00657816  0.05593006  0.26585985    -2.27200
O244        O  0.00286766  0.43161367  0.22341332    -0.71800
H245        H  0.41688920  0.00597258  0.21101878     0.80200
H246        H  0.00203006  0.41187225  0.27483075     0.81200
H247        H  0.09297835  0.00008355  0.21537182     0.83500
H248        H  0.00709040  0.07957751  0.27453397     0.81100
H249        H  0.46233293  0.35662431  0.23426684     0.44100
H250        H  0.04948887  0.35704232  0.22661768     0.43100
H251        H  0.14571306  0.44778056  0.26467700     0.42800
H252        H  0.15303456  0.07114836  0.26196978     0.40700
H253        H  0.04729068  0.13717498  0.24800642     0.43800
H254        H  0.46509745  0.14123396  0.24982514     0.38600
H255        H  0.36073197  0.04457078  0.25987990     0.44700
H256        H  0.35562352  0.46495611  0.23630309     0.41100
H257        H  0.14540437  0.02599851  0.26568702     0.46100
H258        H  0.41721808  0.14155747  0.24407700     0.44800
H259        H  0.35093380  0.41970766  0.24080753     0.44900
H260        H  0.08727708  0.35164527  0.24317353     0.45300
O261        O  0.44333348  0.31519147  0.93042763    -0.73600
O262        O  0.38799375  0.28778161  0.94830544    -0.52500
C263        C  0.40410479  0.30969193  0.93317481     0.80100
O264        O  0.06021092  0.16182965  0.93541547    -0.58200
O265        O  0.11054932  0.18905837  0.95798969    -0.51200
C266        C  0.09857288  0.16986933  0.94066034     0.72100
O267        O  0.42551233  0.17526494  0.93173023    -0.72800
O268        O  0.37728490  0.20689037  0.95243352    -0.53300
C269        C  0.38809878  0.18659187  0.93559729     0.78100
O270        O  0.07477749  0.29195623  0.93109597    -0.57900
O271        O  0.11751981  0.27209202  0.95899054    -0.51000
C272        C  0.10939452  0.27714431  0.93831094     0.74700
Zr273      Zr  0.00633767  0.29774761  0.94879684     2.54700
O274        O  0.00344293  0.31798535  0.91003743    -0.78500
O275        O  0.02848223  0.36488775  0.95719913    -0.91900
Zr276      Zr  0.99070038  0.17932223  0.94946543     2.64700
O277        O  0.49157493  0.15010110  0.91237658    -0.96800
O278        O  0.98442384  0.10983401  0.95899552    -0.82500
O279        O  0.46289882  0.23836636  0.94608053    -0.82300
O280        O  0.03574257  0.23398092  0.94907223    -2.17000
O281        O  0.07224501  0.31000541  0.02731161    -0.65600
O282        O  0.11725132  0.26942365  0.00935074    -0.50200
C283        C  0.10896858  0.29615434  0.02368359     0.73100
O284        O  0.41861164  0.18110374  0.02761076    -0.58600
O285        O  0.37488126  0.21608787  0.00474590    -0.50500
C286        C  0.38272076  0.19457590  0.02188601     0.74900
O287        O  0.05640494  0.15667543  0.02740954    -0.69900
O288        O  0.10805246  0.18188801  0.00585785    -0.48600
C289        C  0.09469102  0.15959441  0.02145353     0.76300
O290        O  0.43062540  0.31737708  0.02425276    -0.65300
O291        O  0.38148551  0.29137582  0.00054355    -0.52500
C292        C  0.39229195  0.31123866  0.01783042     0.74700
Zr293      Zr  0.00036100  0.29952671  0.01384984     2.77500
O294        O  0.99762948  0.30706104  0.05396561    -0.96000
O295        O  0.00563908  0.37062423  0.00894538    -0.76800
Zr296      Zr  0.98916042  0.18133409  0.01405041     2.70100
O297        O  0.98784000  0.17744720  0.05431272    -0.78100
O298        O  0.98018768  0.11019921  0.01091629    -0.97200
Zr299      Zr  0.41931464  0.24671692  0.97726145     2.21500
Zr300      Zr  0.07507365  0.23184164  0.98312660     2.11100
O301        O  0.03410160  0.23694421  0.01557444    -2.45900
O302        O  0.45689129  0.24603510  0.01145262    -0.77900
O303        O  0.04480536  0.29613551  0.98255245    -0.70100
O304        O  0.44935830  0.18261320  0.98114389    -2.31000
O305        O  0.46476970  0.30287195  0.97663208    -2.27200
O306        O  0.03115979  0.17487385  0.98248448    -0.71800
H307        H  0.05075569  0.22994653  0.93558398     0.80200
H308        H  0.42809926  0.16242043  0.98142459     0.81200
H309        H  0.05126765  0.23522165  0.02884979     0.83500
H310        H  0.44916192  0.32703184  0.97513095     0.81100
H311        H  0.49557086  0.09062753  0.95107829     0.44100
H312        H  0.97878298  0.10084934  0.02644366     0.43100
H313        H  0.51151619  0.20104955  0.05968439     0.42800
H314        H  0.01603761  0.28615862  0.06000607     0.40700
H315        H  0.00504895  0.38140792  0.02417459     0.43800
H316        H  0.50290850  0.37697624  0.94604120     0.38600
H317        H  0.49512107  0.28211375  0.89961144     0.44700
H318        H  0.00726286  0.17670136  0.90293477     0.41100
H319        H  0.01270839  0.33201888  0.05722076     0.46100
H320        H  0.04429666  0.37318953  0.94399625     0.44800
H321        H  0.99619297  0.13333835  0.90994150     0.44900
H322        H  0.95149240  0.10641760  0.00490782     0.45300
N323        N  0.19473822  0.29912562  0.83401443    -0.34900
N324        N  0.26227307  0.33766362  0.81032479    -0.55500
N325        N  0.31782858  0.34829307  0.84954890    -0.34900
N326        N  0.24491168  0.31462037  0.89937970    -0.55500
C327        C  0.17453390  0.32570669  0.82129139     0.28700
C328        C  0.17628616  0.29963548  0.85387835     0.28700
C329        C  0.34616757  0.34655744  0.83309227     0.28700
C330        C  0.33857424  0.34082018  0.86894092     0.28700
C331        C  0.23059946  0.34065705  0.79516837     0.37300
C332        C  0.29777888  0.34811701  0.79988233     0.37300
C333        C  0.20619585  0.31124178  0.88860668     0.37300
C334        C  0.27572657  0.33946760  0.89138548     0.37300
C335        C  0.14134621  0.34156489  0.83275706    -0.20200
C336        C  0.14357397  0.32608117  0.85382632    -0.20200
C337        C  0.38549206  0.33986638  0.84228604    -0.20200
C338        C  0.38063458  0.33547372  0.86473128    -0.20200
C339        C  0.24611630  0.35238822  0.77491863    -0.21300
C340        C  0.28871523  0.35658428  0.77780530    -0.21200
C341        C  0.22473205  0.30359120  0.90895810    -0.21300
C342        C  0.25903998  0.32548318  0.91147154    -0.21200
C343        C  0.18773185  0.33841469  0.80045015    -0.16600
C344        C  0.19466741  0.28276215  0.87257709    -0.16600
C345        C  0.31917408  0.33317562  0.88951239    -0.16600
C346        C  0.33814736  0.35048067  0.80997035    -0.16600
H347        H  0.12033360  0.36457065  0.82721551     0.16300
H348        H  0.12453596  0.33419913  0.86773136     0.16300
H349        H  0.41451680  0.33641267  0.83358345     0.16300
H350        H  0.40531216  0.32751945  0.87630007     0.16300
H351        H  0.22842870  0.35842704  0.75985906     0.14600
H352        H  0.31034169  0.36613049  0.76526459     0.14600
H353        H  0.20698417  0.28990676  0.92361444     0.14600
H354        H  0.27526489  0.33141195  0.92867817     0.14600
H355        H  0.22134003  0.28319842  0.82992229     0.27900
H356        H  0.28584749  0.35336578  0.84786388     0.27900
N357        N  0.26583830  0.19520170  0.87899791    -0.34900
N358        N  0.31976245  0.15467253  0.84141574    -0.55500
N359        N  0.25052554  0.15072196  0.81074500    -0.34900
N360        N  0.20130052  0.19170054  0.84191558    -0.55500
C361        C  0.30778135  0.19812339  0.87916291     0.28700
C362        C  0.25151280  0.23145816  0.87382717     0.28700
C363        C  0.28221212  0.14563596  0.79641079     0.28700
C364        C  0.21470841  0.15443282  0.79878665     0.28700
C365        C  0.34273536  0.14737819  0.85983229     0.37300
C366        C  0.33865660  0.13654986  0.82463934     0.37300
C367        C  0.18478596  0.21387550  0.85809776     0.37300
C368        C  0.16942526  0.17871700  0.82887758     0.37300
C369        C  0.32026586  0.23532873  0.87266437    -0.20200
C370        C  0.28419767  0.25602949  0.86881060    -0.20200
C371        C  0.26601586  0.14514752  0.77493835    -0.20200
C372        C  0.22328553  0.15006700  0.77646247    -0.20200
C373        C  0.37650702  0.12379080  0.85492290    -0.21300
C374        C  0.37440918  0.11761433  0.83236690    -0.21200
C375        C  0.14167681  0.21430470  0.85573109    -0.21300
C376        C  0.13184458  0.19140666  0.83740723    -0.21200
C377        C  0.33475263  0.16609058  0.87997890    -0.16600
C378        C  0.20949223  0.24084841  0.87056588    -0.16600
C379        C  0.17472187  0.16133104  0.80774831    -0.16600
C380        C  0.32455424  0.13850936  0.80247569    -0.16600
H381        H  0.35170275  0.24503560  0.86907762     0.16300
H382        H  0.28143953  0.28400416  0.86059752     0.16300
H383        H  0.28302797  0.14071660  0.75980726     0.16300
H384        H  0.20119283  0.15104866  0.76269669     0.16300
H385        H  0.40086582  0.11330433  0.86603357     0.14600
H386        H  0.39633909  0.10074093  0.82283572     0.14600
H387        H  0.11998275  0.23144004  0.86525722     0.14600
H388        H  0.10097344  0.18745237  0.83013871     0.14600
H389        H  0.24815072  0.16978692  0.88193289     0.27900
H390        H  0.25201492  0.14784439  0.82786266     0.27900
O391        O  0.43357061  0.43279320  0.69250185    -0.73600
O392        O  0.46880297  0.38712778  0.71338288    -0.52500
C393        C  0.44503409  0.39744864  0.69705325     0.80100
O394        O  0.07893029  0.06671832  0.69176668    -0.58200
O395        O  0.04415242  0.11326653  0.71156546    -0.51200
C396        C  0.06953731  0.10229236  0.69650162     0.72100
O397        O  0.07954565  0.43552992  0.69057452    -0.72800
O398        O  0.04795186  0.38819000  0.71164866    -0.53300
C399        C  0.07123619  0.39965629  0.69564962     0.78100
O400        O  0.42330262  0.06167409  0.69298574    -0.57900
O401        O  0.46038395  0.10964345  0.71142708    -0.51000
C402        C  0.43402120  0.09754114  0.69659308     0.74700
Zr403      Zr  0.44064787  0.49883650  0.70778202     2.54700
O404        O  0.41299426  0.49592734  0.66996431    -0.78500
O405        O  0.36857734  0.49557828  0.72001410    -0.91900
Zr406      Zr  0.06147140  0.50064408  0.70332101     2.64700
O407        O  0.04745552  0.49792509  0.66351355    -0.96800
O408        O  0.13715808  0.50165759  0.70018480    -0.78900
O409        O  0.00085172  0.46119133  0.70620623    -0.82300
O410        O  0.99684864  0.03881085  0.70550849    -2.17000
O411        O  0.41234821  0.05765171  0.77299340    -0.65600
O412        O  0.44973092  0.10867282  0.75840547    -0.50200
C413        C  0.41793907  0.09418528  0.76848035     0.73100
O414        O  0.10431029  0.43813399  0.77524290    -0.58600
O415        O  0.06434301  0.38925767  0.75931729    -0.50500
C416        C  0.09656206  0.40191382  0.77039935     0.74900
O417        O  0.09399723  0.06906632  0.77720325    -0.69900
O418        O  0.05245295  0.11597400  0.76107640    -0.48600
C419        C  0.08370766  0.10500478  0.77335233     0.76300
O420        O  0.42540848  0.43726008  0.78129559    -0.65300
O421        O  0.46171891  0.38902103  0.76383190    -0.52500
C422        C  0.43256576  0.40108473  0.77671121     0.74700
Zr423      Zr  0.45315993  0.50200389  0.77283734     2.77500
O424        O  0.47853482  0.50943440  0.81088645    -0.96000
O425        O  0.38625122  0.49905455  0.79137890    -0.76800
Zr426      Zr  0.07393333  0.50254103  0.76828495     2.70100
O427        O  0.08055878  0.49918087  0.80851476    -0.78100
O428        O  0.14886498  0.50731371  0.76229864    -0.97200
Zr429      Zr  0.00765700  0.42298098  0.73928026     2.21500
Zr430      Zr  0.00234008  0.07781432  0.73843977     2.11100
O431        O  0.00916546  0.04044256  0.77196191    -2.45900
O432        O  0.01407809  0.46132218  0.77241716    -0.77900
O433        O  0.44364676  0.03484210  0.73904001    -0.70100
O434        O  0.06877906  0.46318087  0.73597940    -2.31000
O435        O  0.44629921  0.46160258  0.74078572    -2.27200
O436        O  0.06504544  0.04074911  0.73565032    -0.71800
H437        H  0.99508939  0.05492831  0.69235628     0.80200
H438        H  0.09355687  0.44743216  0.73438752     0.81200
H439        H  0.01085113  0.05757293  0.78475277     0.83500
H440        H  0.42211466  0.44444558  0.74105643     0.81100
H441        H  0.14211418  0.50896337  0.68454531     0.44100
H442        H  0.15196513  0.52821655  0.75094976     0.43100
H443        H  0.07228498  0.52560085  0.81376464     0.42800
H444        H  0.45760016  0.02447049  0.81586630     0.40700
H445        H  0.36511299  0.49850715  0.77920192     0.43800
H446        H  0.35199049  0.50598079  0.70733110     0.38600
H447        H  0.43705422  0.50287624  0.66059409     0.44700
H448        H  0.02751073  0.51950438  0.66041733     0.41100
H449        H  0.45789220  0.49495853  0.81988101     0.46100
H450        H  0.36651888  0.51616431  0.73156080     0.44800
H451        H  0.07379052  0.50676634  0.65667287     0.44900
H452        H  0.16066080  0.51900838  0.77608145     0.45300
N453        N  0.25680520  0.09148011  0.13702002    -0.34900
N454        N  0.18598288  0.10595057  0.10676423    -0.55500
N455        N  0.24207061  0.12836587  0.07212612    -0.34900
N456        N  0.31311839  0.11743644  0.10270827    -0.55500
C457        C  0.22474608  0.09025292  0.15137833     0.28700
C458        C  0.29274174  0.09479959  0.14908688     0.28700
C459        C  0.20515191  0.14072325  0.06335970     0.28700
C460        C  0.27276260  0.14624844  0.06063937     0.28700
C461        C  0.16600759  0.08846567  0.12366638     0.37300
C462        C  0.15825408  0.10722210  0.08966167     0.37300
C463        C  0.34185516  0.10531735  0.11794993     0.37300
C464        C  0.33393000  0.12415741  0.08373194     0.37300
C465        C  0.24057463  0.09181444  0.17290946    -0.20200
C466        C  0.28346622  0.09449814  0.17146926    -0.20200
C467        C  0.21262592  0.16717794  0.04635865    -0.20200
C468        C  0.25488423  0.16937251  0.04402450    -0.20200
C469        C  0.12556668  0.07826201  0.11719228    -0.21300
C470        C  0.12068930  0.09013689  0.09561710    -0.21200
C471        C  0.38118962  0.10508837  0.10875771    -0.21300
C472        C  0.37623441  0.11702183  0.08715183    -0.21200
C473        C  0.18187585  0.08594098  0.14550928    -0.16600
C474        C  0.33361514  0.09686195  0.14041692    -0.16600
C475        C  0.31614058  0.14002857  0.06397983    -0.16600
C476        C  0.16506691  0.12714253  0.06957908    -0.16600
H477        H  0.22307149  0.09088842  0.18809040     0.16300
H478        H  0.30529705  0.09629872  0.18533347     0.16300
H479        H  0.19031374  0.18326766  0.03627301     0.16300
H480        H  0.26955368  0.18609281  0.03109077     0.16300
H481        H  0.10170573  0.06453457  0.12714324     0.14600
H482        H  0.09242282  0.08732282  0.08563510     0.14600
H483        H  0.41053887  0.09769954  0.11685767     0.14600
H484        H  0.40128098  0.12089566  0.07552253     0.14600
H485        H  0.25451324  0.08657692  0.12006646     0.27900
H486        H  0.24626692  0.10561646  0.08348594     0.27900
N487        N  0.25193597  0.39480078  0.13731705    -0.34900
N488        N  0.31569051  0.37984191  0.10319408    -0.55500
N489        N  0.25163970  0.35454224  0.07269533    -0.34900
N490        N  0.18736513  0.37413257  0.10602976    -0.55500
C491        C  0.28651188  0.41074678  0.14697474     0.28700
C492        C  0.21819561  0.40817132  0.14833968     0.28700
C493        C  0.28431129  0.35966572  0.05882746     0.28700
C494        C  0.21610427  0.35671924  0.06028349     0.28700
C495        C  0.34008439  0.38328329  0.12156898     0.37300
C496        C  0.34007495  0.36416366  0.08737905     0.37300
C497        C  0.16353448  0.37743439  0.12427768     0.37300
C498        C  0.16335138  0.35623883  0.09037431     0.37300
C499        C  0.27473336  0.43439446  0.16454206    -0.20200
C500        C  0.23164844  0.43276985  0.16539373    -0.20200
C501        C  0.26918947  0.36561756  0.03745107    -0.20200
C502        C  0.22626646  0.36357262  0.03834621    -0.20200
C503        C  0.38002089  0.36979543  0.11738853    -0.21300
C504        C  0.37999329  0.35764614  0.09577070    -0.21200
C505        C  0.12415493  0.36172107  0.12017157    -0.21300
C506        C  0.12409966  0.34802690  0.09877865    -0.21200
C507        C  0.32828784  0.40184644  0.14138170    -0.16600
C508        C  0.17600204  0.39694632  0.14400161    -0.16600
C509        C  0.17486776  0.35074517  0.06803998    -0.16600
C510        C  0.32728152  0.35798845  0.06513333    -0.16600
H511        H  0.29509689  0.45069186  0.17577871     0.16300
H512        H  0.21248647  0.44765317  0.17734699     0.16300
H513        H  0.28709461  0.37133753  0.02273490     0.16300
H514        H  0.20492006  0.36713406  0.02439888     0.16300
H515        H  0.40665041  0.36918358  0.12867598     0.14600
H516        H  0.40647489  0.34547876  0.08730166     0.14600
H517        H  0.09806582  0.36059472  0.13133099     0.14600
H518        H  0.09777045  0.33426221  0.09030566     0.14600
H519        H  0.25210485  0.37259328  0.12548300     0.27900
H520        H  0.25332933  0.34589393  0.08925615     0.27900
C521        C  0.11034873  0.13411700  0.78394419    -0.11600
C522        C  0.13809353  0.15032514  0.79444353    -0.13100
C523        C  0.38514766  0.11931468  0.77573759    -0.11600
C524        C  0.35539686  0.13089590  0.78577591    -0.13100
C525        C  0.15631568  0.35634812  0.78617198    -0.11600
C526        C  0.12769213  0.37428108  0.77775015    -0.13100
C527        C  0.37398130  0.35965190  0.79611332    -0.11600
C528        C  0.40346467  0.37354112  0.78635455    -0.13100
C529        C  0.12750735  0.13840602  0.05610884    -0.14700
C530        C  0.12631111  0.13718667  0.03388879    -0.29900
H531        H  0.10109057  0.15055342  0.06483534     0.14300
H532        H  0.15256620  0.12544752  0.02489949     0.14900
C533        C  0.34517860  0.14955000  0.04582118    -0.14700
C534        C  0.34881662  0.18568071  0.03696755    -0.29900
H535        H  0.36663798  0.12663109  0.04080049     0.14300
H536        H  0.32947142  0.20989859  0.04232408     0.14900
C537        C  0.14076945  0.34031670  0.05194287    -0.14700
C538        C  0.14447406  0.31072697  0.03735449    -0.29900
H539        H  0.11083287  0.35484239  0.05357178     0.14300
H540        H  0.17406788  0.29541789  0.03615554     0.14900
C541        C  0.35712417  0.32490444  0.03169384    -0.14700
C542        C  0.36104063  0.35095970  0.04842351    -0.29900
H543        H  0.32722222  0.31030275  0.02891250     0.14300
H544        H  0.39139271  0.36468145  0.05126225     0.14900
C545        C  0.13454032  0.25542624  0.92198326    -0.14700
C546        C  0.16165630  0.22747420  0.92877975    -0.29900
H547        H  0.12160261  0.25347829  0.90524828     0.14300
H548        H  0.17429244  0.22860509  0.94559389     0.14900
C549        C  0.34368891  0.31296112  0.90753011    -0.14700
C550        C  0.37665959  0.33048723  0.91733455    -0.29900
H551        H  0.33372295  0.28388283  0.91299441     0.14300
H552        H  0.38666530  0.35933547  0.91152738     0.14900
C553        C  0.13110199  0.16060041  0.92435661    -0.14700
C554        C  0.16010538  0.18777174  0.91846456    -0.29900
H555        H  0.12896804  0.13309027  0.91522455     0.14300
H556        H  0.18204015  0.18086179  0.90555942     0.14900
C557        C  0.35558187  0.17814470  0.91884510    -0.14700
C558        C  0.36505096  0.16412226  0.89872583    -0.29900
H559        H  0.32404806  0.18801606  0.92212384     0.14300
H560        H  0.39654102  0.15416092  0.89564076     0.14900
C561        C  0.39106671  0.42008537  0.16873643    -0.11600
C562        C  0.36183421  0.41246584  0.15663382    -0.13100
C563        C  0.14361562  0.40680096  0.16000214    -0.11600
C564        C  0.11615304  0.41528452  0.17285346    -0.13100
C565        C  0.39753901  0.08276816  0.16825970    -0.11600
C566        C  0.36913583  0.09035840  0.15544773    -0.13100
C567        C  0.15130769  0.08021669  0.16266318    -0.11600
C568        C  0.12295679  0.07454912  0.17519882    -0.13100
C569        C  0.10601641  0.15351425  0.67072923    -0.11600
C570        C  0.08893230  0.13162432  0.68331389    -0.13100
C571        C  0.10584460  0.34801315  0.66935467    -0.11600
C572        C  0.08959690  0.37046384  0.68192144    -0.13100
C573        C  0.40657157  0.14773609  0.66703591    -0.11600
C574        C  0.41728414  0.12562385  0.68150242    -0.13100
C575        C  0.41952565  0.34457975  0.66807455    -0.11600
C576        C  0.43101128  0.36760686  0.68202841    -0.13100
C577        C  0.35419280  0.11111223  0.55892960    -0.14700
C578        C  0.36677024  0.14780586  0.55389730    -0.29900
H579        H  0.35260861  0.10113162  0.57597366     0.14300
H580        H  0.36710158  0.15638253  0.53654208     0.14900
C581        C  0.35186211  0.38787718  0.55990307    -0.14700
C582        C  0.36630003  0.35189296  0.55523778    -0.29900
H583        H  0.34938546  0.39783999  0.57690625     0.14300
H584        H  0.36825136  0.34348150  0.53791328     0.14900
C585        C  0.19070983  0.10936743  0.56607129    -0.14700
C586        C  0.18343488  0.14777715  0.56248214    -0.29900
H587        H  0.18913384  0.09703336  0.58263881     0.14300
H588        H  0.18588451  0.15895072  0.54565421     0.14900
C589        C  0.19460319  0.38494976  0.56623673    -0.14700
C590        C  0.18539014  0.34707152  0.56214579    -0.29900
H591        H  0.19379240  0.39661842  0.58296810     0.14300
H592        H  0.18691361  0.33620483  0.54523605     0.14900
C593        C  0.07875097  0.13939263  0.33016041    -0.11600
C594        C  0.07447372  0.10986248  0.31892462    -0.13100
C595        C  0.07096186  0.37887135  0.31853781    -0.11600
C596        C  0.07520929  0.34945044  0.32993012    -0.13100
C597        C  0.16575833  0.14263040  0.43275602    -0.14700
C598        C  0.17070062  0.14379622  0.45493779    -0.29900
H599        H  0.17378310  0.11568780  0.42408818     0.14300
H600        H  0.16384726  0.17025977  0.46425947     0.14900
C601        C  0.16366301  0.35091948  0.43170149    -0.14700
C602        C  0.17096679  0.35005337  0.45374290    -0.29900
H603        H  0.16968423  0.37816990  0.42275135     0.14300
H604        H  0.16541562  0.32344007  0.46328777     0.14900
C605        C  0.43008186  0.11162306  0.31544883    -0.11600
C606        C  0.42411633  0.14091702  0.32655413    -0.13100
C607        C  0.42629443  0.38006610  0.31370667    -0.11600
C608        C  0.42045503  0.35042213  0.32465070    -0.13100
C609        C  0.34165255  0.14666569  0.45090754    -0.14700
C610        C  0.37207288  0.14452984  0.43592206    -0.29900
H611        H  0.32495481  0.17411318  0.45319066     0.14300
H612        H  0.38800541  0.11666458  0.43364006     0.14900
C613        C  0.36894227  0.35148715  0.43396451    -0.14700
C614        C  0.33847954  0.34919255  0.44897350    -0.29900
H615        H  0.38437247  0.37967642  0.43125942     0.14300
H616        H  0.32235778  0.32135948  0.45167331     0.14900
N617        N  0.41497644  0.74729510  0.34229583    -0.34900
N618        N  0.38795793  0.68694601  0.37333135    -0.55500
N619        N  0.36704972  0.74763142  0.40491728    -0.34900
N620        N  0.39003090  0.80787588  0.37400836    -0.55500
C621        C  0.41429866  0.71475787  0.32914248     0.28700
C622        C  0.41350514  0.77981448  0.32912276     0.28700
C623        C  0.34654138  0.71590583  0.41285024     0.28700
C624        C  0.34892329  0.77975961  0.41363744     0.28700
C625        C  0.41048784  0.66509460  0.35926285     0.37300
C626        C  0.38432709  0.66544907  0.39207566     0.37300
C627        C  0.41124638  0.82977579  0.35925134     0.37300
C628        C  0.38802014  0.82953928  0.39276033     0.37300
C629        C  0.41325266  0.72678342  0.30715751    -0.20200
C630        C  0.41264896  0.76775858  0.30714286    -0.20200
C631        C  0.31450793  0.72795974  0.42642971    -0.20200
C632        C  0.31610126  0.76841636  0.42697869    -0.20200
C633        C  0.42159039  0.62966482  0.36915886    -0.21300
C634        C  0.40550214  0.63014073  0.39011227    -0.21200
C635        C  0.42321705  0.86542675  0.36873220    -0.21300
C636        C  0.40914191  0.86496020  0.39013254    -0.21200
C637        C  0.41669327  0.67496856  0.33688140    -0.16600
C638        C  0.41560711  0.81968847  0.33674371    -0.16600
C639        C  0.36360659  0.81863456  0.41110309    -0.16600
C640        C  0.35918404  0.67666810  0.40997671    -0.16600
H641        H  0.41316989  0.70803871  0.29265680     0.16300
H642        H  0.41212191  0.78650860  0.29261247     0.16300
H643        H  0.29277077  0.70952900  0.43535792     0.16300
H644        H  0.29573083  0.78727012  0.43633101     0.16300
H645        H  0.43920341  0.60589318  0.36196576     0.14600
H646        H  0.40874884  0.60694092  0.40233115     0.14600
H647        H  0.44004739  0.88937369  0.36096860     0.14600
H648        H  0.41328339  0.88838273  0.40213410     0.14600
H649        H  0.42009197  0.74735559  0.35936604     0.27900
H650        H  0.39524745  0.74717982  0.39655282     0.27900
N651        N  0.11365237  0.68559589  0.37941607    -0.34900
N652        N  0.09478893  0.74540749  0.34571802    -0.55500
N653        N  0.11936100  0.80669153  0.37723657    -0.34900
N654        N  0.14034403  0.74715705  0.40955092    -0.55500
C655        C  0.11194719  0.66382216  0.36067657     0.28700
C656        C  0.13669681  0.66513815  0.39449353     0.28700
C657        C  0.11706661  0.82740042  0.35811950     0.28700
C658        C  0.14361128  0.82774556  0.39159080     0.28700
C659        C  0.07815187  0.71293109  0.33569400     0.37300
C660        C  0.07966970  0.77757489  0.33485404     0.37300
C661        C  0.14069416  0.71619993  0.42353759     0.37300
C662        C  0.14441594  0.77951120  0.42232345     0.37300
C663        C  0.13393098  0.62909515  0.36390241    -0.20200
C664        C  0.14997683  0.63014615  0.38515074    -0.20200
C665        C  0.14003501  0.86205120  0.36033168    -0.20200
C666        C  0.15718920  0.86204536  0.38136963    -0.20200
C667        C  0.05244310  0.72452440  0.31817690    -0.21300
C668        C  0.05334430  0.76539523  0.31766924    -0.21200
C669        C  0.14403424  0.72890202  0.44533585    -0.21300
C670        C  0.14646048  0.76919771  0.44456030    -0.21200
C671        C  0.08879223  0.67332531  0.34131600    -0.16600
C672        C  0.14485912  0.67701673  0.41661397    -0.16600
C673        C  0.15191148  0.81744814  0.41395739    -0.16600
C674        C  0.09200902  0.81730424  0.33948886    -0.16600
H675        H  0.13828949  0.60554256  0.35209803     0.16300
H676        H  0.16935341  0.60765847  0.39271073     0.16300
H677        H  0.14397198  0.88503769  0.34806780     0.16300
H678        H  0.17702008  0.88498527  0.38831800     0.16300
H679        H  0.03519489  0.70553531  0.30684059     0.14600
H680        H  0.03697282  0.78397453  0.30583744     0.14600
H681        H  0.14623735  0.71094165  0.46015331     0.14600
H682        H  0.15072859  0.78858679  0.45866537     0.14600
H683        H  0.09652536  0.71099853  0.38240334     0.27900
H684        H  0.10141969  0.78195818  0.38099871     0.27900
O685        O  0.17252691  0.94560781  0.44665007    -0.73600
O686        O  0.21173215  0.89480897  0.46031760    -0.52500
C687        C  0.18299661  0.90915770  0.44754000     0.80100
O688        O  0.32523462  0.54807206  0.43700515    -0.58200
O689        O  0.29729982  0.60002028  0.45564283    -0.51200
C690        C  0.31761523  0.58487361  0.43952001     0.72100
O691        O  0.32837072  0.94739007  0.43816634    -0.72800
O692        O  0.30243051  0.89463610  0.45717644    -0.53300
C693        C  0.32212900  0.91025105  0.44089312     0.78100
O694        O  0.16468137  0.54924053  0.44967214    -0.57900
O695        O  0.20540261  0.60016288  0.46236851    -0.51000
C696        C  0.17510055  0.58582752  0.45056496     0.74700
Zr697      Zr  0.19369484  0.00623487  0.46510457     2.54700
O698        O  0.17875802  0.02020478  0.42617739    -0.78500
O699        O  0.11659396  0.48139653  0.47468405    -0.91900
Zr700      Zr  0.31791875  0.00764613  0.45922629     2.64700
O701        O  0.31391722  0.02211107  0.41967919    -0.96800
O702        O  0.38883795  0.48983637  0.45424681    -0.78900
O703        O  0.25519705  0.96993194  0.45796547    -0.82300
O704        O  0.25085613  0.52518365  0.45770498    -2.17000
O705        O  0.19126970  0.57792354  0.53616681    -0.65600
O706        O  0.22140954  0.61759609  0.51031101    -0.50200
C707        C  0.19958537  0.61198272  0.52774777     0.73100
O708        O  0.34579546  0.91772104  0.52989804    -0.58600
O709        O  0.30680861  0.87778925  0.50714869    -0.50500
C710        C  0.33420962  0.88359270  0.52261656     0.74900
O711        O  0.34600653  0.57833743  0.52769126    -0.69900
O712        O  0.30608199  0.61799980  0.50548544    -0.48600
C713        C  0.33397796  0.61240199  0.52071158     0.76300
O714        O  0.18965389  0.91694537  0.53491176    -0.65300
O715        O  0.22155508  0.87744090  0.50982561    -0.52500
C716        C  0.19812359  0.88305914  0.52662601     0.74700
Zr717      Zr  0.20680113  0.50844041  0.52948739     2.77500
O718        O  0.21198442  0.96982993  0.56833343    -0.96000
O719        O  0.13042033  0.98804914  0.52956716    -0.76800
Zr720      Zr  0.33051334  0.50871294  0.52119749     2.70100
O721        O  0.36044459  0.52321903  0.55765703    -0.78100
O722        O  0.40396844  0.99198519  0.51337365    -0.97200
Zr723      Zr  0.26146416  0.92229056  0.48680218     2.21500
Zr724      Zr  0.25882826  0.57280604  0.48648335     2.11100
O725        O  0.26799961  0.54549248  0.52259228    -2.45900
O726        O  0.26813876  0.94961344  0.52294432    -0.77900
O727        O  0.19665265  0.53659127  0.49389022    -0.70100
O728        O  0.32530387  0.95906821  0.48738632    -2.31000
O729        O  0.19886861  0.95783821  0.49332019    -2.27200
O730        O  0.32244749  0.53674910  0.48544333    -0.71800
H731        H  0.24674331  0.53774376  0.44347369     0.80200
H732        H  0.34891874  0.94242890  0.48465864     0.81200
H733        H  0.27054775  0.56553300  0.53384919     0.83500
H734        H  0.17480159  0.94051607  0.49273895     0.81100
H735        H  0.40032672  0.98689923  0.44631573     0.44100
H736        H  0.41758315  0.52326384  0.51656792     0.43100
H737        H  0.32640676  0.96381007  0.56849128     0.42800
H738        H  0.23175626  0.54005176  0.57157795     0.40700
H739        H  0.12299690  0.51039652  0.54451738     0.43800
H740        H  0.11665821  0.01933054  0.48695720     0.38600
H741        H  0.20420563  0.03370668  0.42085304     0.44700
H742        H  0.29188301  0.49573420  0.41134082     0.41100
H743        H  0.18310797  0.53478346  0.57255364     0.46100
H744        H  0.11378766  0.97634031  0.47757505     0.44800
H745        H  0.34142408  0.03383340  0.41617133     0.44900
H746        H  0.41195427  0.47739868  0.51553292     0.45300
N747        N  0.40376876  0.68734941  0.60461136    -0.34900
N748        N  0.41854075  0.74747226  0.63769360    -0.55500
N749        N  0.41111092  0.80803625  0.60395829    -0.34900
N750        N  0.39209715  0.74790145  0.57085884    -0.55500
C751        C  0.39838566  0.66634927  0.62347817     0.28700
C752        C  0.38699440  0.66603001  0.58774545     0.28700
C753        C  0.41069235  0.83017911  0.62259535     0.28700
C754        C  0.39664880  0.83076027  0.58711257     0.28700
C755        C  0.42796506  0.71531278  0.64983667     0.37300
C756        C  0.43303922  0.77857789  0.64937021     0.37300
C757        C  0.39485840  0.71575182  0.55775999     0.37300
C758        C  0.39682636  0.77966046  0.55754797     0.37300
C759        C  0.37833460  0.63105582  0.61855478    -0.20200
C760        C  0.37106890  0.63084060  0.59600086    -0.20200
C761        C  0.39662769  0.86772350  0.61751332    -0.20200
C762        C  0.38758723  0.86808409  0.59514853    -0.20200
C763        C  0.44883062  0.72593017  0.66927856    -0.21300
C764        C  0.45200705  0.76619099  0.66899201    -0.21200
C765        C  0.40192921  0.72715358  0.53606062    -0.21300
C766        C  0.40285720  0.76767790  0.53590521    -0.21200
C767        C  0.41366186  0.67723118  0.64469066    -0.16600
C768        C  0.38779792  0.67660881  0.56502661    -0.16600
C769        C  0.39327144  0.81925556  0.56457979    -0.16600
C770        C  0.42482683  0.81790308  0.64376664    -0.16600
H771        H  0.37016410  0.60773551  0.62998605     0.16300
H772        H  0.35586135  0.60731610  0.58676617     0.16300
H773        H  0.39345254  0.89237981  0.62871697     0.16300
H774        H  0.37584711  0.89318381  0.58592887     0.16300
H775        H  0.45965407  0.70679431  0.68252273     0.14600
H776        H  0.46567445  0.78431639  0.68199753     0.14600
H777        H  0.40571165  0.70833982  0.52177963     0.14600
H778        H  0.40752411  0.78619013  0.52152332     0.14600
H779        H  0.42205128  0.71256754  0.60291104     0.27900
H780        H  0.42448285  0.78038887  0.60241865     0.27900
N781        N  0.11228029  0.80991863  0.60638503    -0.34900
N782        N  0.09865293  0.75054494  0.63982335    -0.55500
N783        N  0.12356540  0.69000132  0.60923276    -0.34900
N784        N  0.14149482  0.74917533  0.57594293    -0.55500
C785        C  0.10910451  0.83244331  0.62479621     0.28700
C786        C  0.13170086  0.83192070  0.59090425     0.28700
C787        C  0.12522540  0.67005216  0.62868751     0.28700
C788        C  0.14484192  0.66882166  0.59424646     0.28700
C789        C  0.08083332  0.78145580  0.64984954     0.37300
C790        C  0.08758508  0.71844281  0.65152045     0.37300
C791        C  0.13668194  0.78018878  0.56207290     0.37300
C792        C  0.14037939  0.71642054  0.56317806     0.37300
C793        C  0.12610214  0.86940834  0.62091082    -0.20200
C794        C  0.14059470  0.86905506  0.59956601    -0.20200
C795        C  0.14788671  0.63574136  0.62607467    -0.20200
C796        C  0.16036434  0.63497845  0.60432833    -0.20200
C797        C  0.05807097  0.76900398  0.66793787    -0.21300
C798        C  0.06231953  0.72890890  0.66899171    -0.21200
C799        C  0.13201792  0.76715842  0.54041732    -0.21300
C800        C  0.13409826  0.72668378  0.54112508    -0.21200
C801        C  0.08965692  0.82084222  0.64460568    -0.16600
C802        C  0.13907802  0.82003733  0.56880945    -0.16600
C803        C  0.14746098  0.67785967  0.57138550    -0.16600
C804        C  0.10398272  0.68076392  0.64808542    -0.16600
H805        H  0.12792283  0.89404763  0.63227576     0.16300
H806        H  0.15585997  0.89351719  0.59141617     0.16300
H807        H  0.15421693  0.61332717  0.63845086     0.16300
H808        H  0.17839453  0.61186998  0.59676527     0.16300
H809        H  0.04131006  0.78703195  0.67955748     0.14600
H810        H  0.04937079  0.70986251  0.68157424     0.14600
H811        H  0.12727751  0.78491683  0.52568102     0.14600
H812        H  0.13115845  0.70718237  0.52700633     0.14600
H813        H  0.09821491  0.78256284  0.60372612     0.27900
H814        H  0.10458912  0.71401386  0.60559103     0.27900
O815        O  0.42736788  0.58397125  0.27611638    -0.73600
O816        O  0.45641834  0.54807611  0.30463515    -0.52500
C817        C  0.43695894  0.57862082  0.29669473     0.80100
O818        O  0.41118819  0.93630306  0.20270284    -0.58200
O819        O  0.45269788  0.96880971  0.17801457    -0.51200
C820        C  0.42030003  0.94804236  0.18309213     0.72100
O821        O  0.42602223  0.91040051  0.27523933    -0.72800
O822        O  0.45575621  0.94558023  0.30392362    -0.53300
C823        C  0.43558957  0.91537984  0.29585581     0.78100
O824        O  0.41374197  0.56256569  0.20268016    -0.57900
O825        O  0.45500988  0.53091999  0.17781507    -0.51000
C826        C  0.42326770  0.55227561  0.18286889     0.74700
Zr827      Zr  0.43968073  0.55172516  0.24062157     2.54700
O828        O  0.36405249  0.54824921  0.24377076    -0.78500
O829        O  0.43968552  0.62237998  0.23320528    -0.91900
Zr830      Zr  0.43855194  0.94475189  0.24034972     2.64700
O831        O  0.36354530  0.95010464  0.24544791    -0.96800
O832        O  0.43576667  0.87446652  0.23233895    -0.78900
O833        O  0.43549471  0.49477700  0.26406167    -0.82300
O834        O  0.44060478  0.49284168  0.22035003    -2.17000
O835        O  0.09617164  0.56056592  0.20912700    -0.65600
O836        O  0.05626047  0.53007987  0.18227705    -0.50200
C837        C  0.08797044  0.55076214  0.18895312     0.73100
O838        O  0.07452582  0.90746979  0.27919682    -0.58600
O839        O  0.04381582  0.94340879  0.30666646    -0.50500
C840        C  0.06376246  0.91283954  0.29942858     0.74900
O841        O  0.09517435  0.93114466  0.20612623    -0.69900
O842        O  0.05588930  0.96416591  0.18013490    -0.48600
C843        C  0.08710653  0.94238559  0.18601827     0.76300
O844        O  0.07560513  0.58243657  0.28115744    -0.65300
O845        O  0.04349942  0.54640163  0.30823415    -0.52500
C846        C  0.06385378  0.57710190  0.30123236     0.74700
Zr847      Zr  0.06720358  0.54878294  0.24557606     2.77500
O848        O  0.14166369  0.54156727  0.25319817    -0.96000
O849        O  0.07290698  0.61957464  0.23955217    -0.76800
Zr850      Zr  0.06535592  0.94027414  0.24336544     2.70100
O851        O  0.14032053  0.93869465  0.25065137    -0.78100
O852        O  0.05972905  0.86993715  0.23561970    -0.97200
Zr853      Zr  0.00349145  0.49337844  0.28888905     2.21500
Zr854      Zr  0.00448368  0.49078279  0.20185927     2.11100
O855        O  0.06619045  0.49041284  0.22459843    -2.45900
O856        O  0.06737634  0.49118822  0.26847270    -0.77900
O857        O  0.00529011  0.55070715  0.22283138    -0.70100
O858        O  0.00343055  0.94226992  0.26378213    -2.31000
O859        O  0.00451306  0.54926061  0.26492331    -2.27200
O860        O  0.00288984  0.94239307  0.22129822    -0.71800
H861        H  0.41609130  0.49272702  0.21082455     0.80200
H862        H  0.00261268  0.91760913  0.27159393     0.81200
H863        H  0.09135134  0.48982641  0.21604159     0.83500
H864        H  0.00472270  0.57381067  0.27275558     0.81100
H865        H  0.46398894  0.86817066  0.22696884     0.44100
H866        H  0.03761494  0.86029697  0.24557314     0.43100
H867        H  0.15009583  0.91531644  0.24246197     0.42800
H868        H  0.14343108  0.52835127  0.26782402     0.40700
H869        H  0.04547357  0.63006579  0.24392670     0.43800
H870        H  0.45063609  0.63495507  0.24693161     0.38600
H871        H  0.35925833  0.53319847  0.25757442     0.44700
H872        H  0.35288235  0.96294151  0.23175013     0.41100
H873        H  0.15083476  0.52134534  0.24254351     0.46100
H874        H  0.40975264  0.62954170  0.23256496     0.44800
H875        H  0.35307581  0.92261860  0.24445109     0.44900
H876        H  0.04689120  0.86834987  0.22059446     0.45300
O877        O  0.44207212  0.81477787  0.93085183    -0.73600
O878        O  0.38667490  0.78979033  0.94966199    -0.52500
C879        C  0.40284401  0.80952025  0.93358750     0.80100
O880        O  0.05756115  0.66631218  0.93654072    -0.58200
O881        O  0.10875872  0.69556104  0.95767858    -0.51200
C882        C  0.09606388  0.67520591  0.94091124     0.72100
O883        O  0.42219591  0.68297001  0.93392240    -0.72800
O884        O  0.37442410  0.71365039  0.95523989    -0.53300
C885        C  0.38482840  0.69440167  0.93795813     0.78100
O886        O  0.07145217  0.79587988  0.93041295    -0.57900
O887        O  0.11606881  0.77671893  0.95769495    -0.51000
C888        C  0.10662915  0.78144086  0.93714488     0.74700
Zr889      Zr  0.00346070  0.80220785  0.94876644     2.54700
O890        O  0.00250483  0.82516701  0.91049654    -0.78500
O891        O  0.02197067  0.86901953  0.95996904    -0.91900
Zr892      Zr  0.98877981  0.68361672  0.95155718     2.64700
O893        O  0.48334147  0.65534643  0.91482463    -0.96800
O894        O  0.98124763  0.61575336  0.96406614    -0.82500
O895        O  0.46604880  0.74412335  0.95310913    -0.82300
O896        O  0.03326957  0.73863366  0.94949075    -2.17000
O897        O  0.07280269  0.82089846  0.02422357    -0.65600
O898        O  0.11771527  0.77849147  0.00760128    -0.50200
C899        C  0.10967046  0.80708403  0.02080752     0.73100
O900        O  0.42019816  0.68273186  0.03033071    -0.58600
O901        O  0.37636375  0.72004044  0.00871272    -0.50500
C902        C  0.38437733  0.69694570  0.02522639     0.74900
O903        O  0.05808670  0.66724589  0.02889076    -0.69900
O904        O  0.10899667  0.69158370  0.00654437    -0.48600
C905        C  0.09626098  0.67054597  0.02276897     0.76300
O906        O  0.43126238  0.82625818  0.02510166    -0.65300
O907        O  0.38196453  0.79892816  0.00193383    -0.52500
C908        C  0.39300565  0.82060291  0.01841041     0.74700
Zr909      Zr  0.99962194  0.80743686  0.01334563     2.77500
O910        O  0.00304085  0.81822720  0.05327205    -0.96000
O911        O  0.99847754  0.87844331  0.00748931    -0.76800
Zr912      Zr  0.98951021  0.68954101  0.01603116     2.70100
O913        O  0.99157381  0.68826471  0.05639721    -0.78100
O914        O  0.97937342  0.61833627  0.01478630    -0.97200
Zr915      Zr  0.41837560  0.75155050  0.98010206     2.21500
Zr916      Zr  0.07412470  0.73874884  0.98305791     2.11100
O917        O  0.03416005  0.74545573  0.01582885    -2.45900
O918        O  0.45662016  0.75037539  0.01418620    -0.77900
O919        O  0.04349260  0.80283328  0.98187982    -0.70100
O920        O  0.44795505  0.68722793  0.98386371    -2.31000
O921        O  0.46323144  0.80826824  0.97967216    -2.27200
O922        O  0.03071553  0.68133735  0.98417693    -0.71800
H923        H  0.04711823  0.73432645  0.93620438     0.80200
H924        H  0.42668179  0.66695226  0.98426290     0.81200
H925        H  0.05198477  0.74498358  0.02889856     0.83500
H926        H  0.44769559  0.83243898  0.97825168     0.81100
H927        H  0.50661398  0.60260124  0.96730751     0.44100
H928        H  0.99031780  0.60885164  0.02927647     0.43100
H929        H  0.48706905  0.72015974  0.06049487     0.42800
H930        H  0.02334182  0.79861736  0.05896833     0.40700
H931        H  0.01733584  0.88924936  0.01918021     0.43800
H932        H  0.51158331  0.88255885  0.94682364     0.38600
H933        H  0.50962692  0.80200699  0.90170858     0.44700
H934        H  0.99701718  0.67710382  0.90454907     0.41100
H935        H  0.01737744  0.84399426  0.05516677     0.46100
H936        H  0.04585087  0.87619707  0.95054573     0.44800
H937        H  0.99801067  0.63368377  0.91363353     0.44900
H938        H  0.94878185  0.61436003  0.01558462     0.45300
N939        N  0.19165410  0.80326310  0.83326874    -0.34900
N940        N  0.26048428  0.84071748  0.80999959    -0.55500
N941        N  0.31790406  0.84759200  0.84915986    -0.34900
N942        N  0.24232741  0.81907354  0.89883950    -0.55500
C943        C  0.17234232  0.83015802  0.82040542     0.28700
C944        C  0.17325906  0.80464019  0.85314435     0.28700
C945        C  0.34530790  0.84282168  0.83246114     0.28700
C946        C  0.33791784  0.83747414  0.86840597     0.28700
C947        C  0.22912500  0.84489003  0.79472972     0.37300
C948        C  0.29648520  0.84978833  0.79963185     0.37300
C949        C  0.20399608  0.81751930  0.88756407     0.37300
C950        C  0.27523802  0.84104300  0.89064347     0.37300
C951        C  0.13959680  0.84712289  0.83169561    -0.20200
C952        C  0.14131086  0.83196712  0.85285284    -0.20200
C953        C  0.38363308  0.83144410  0.84132730    -0.20200
C954        C  0.37884618  0.82743821  0.86385466    -0.20200
C955        C  0.24519339  0.85665709  0.77461653    -0.21300
C956        C  0.28786655  0.85930003  0.77762613    -0.21200
C957        C  0.22080895  0.81045015  0.90838006    -0.21300
C958        C  0.25703492  0.82945443  0.91082216    -0.21200
C959        C  0.18611136  0.84219142  0.79959559    -0.16600
C960        C  0.19164900  0.78843815  0.87208936    -0.16600
C961        C  0.31805901  0.83170076  0.88909044    -0.16600
C962        C  0.33713290  0.84824808  0.80942423    -0.16600
H963        H  0.11943028  0.87068353  0.82599670     0.16300
H964        H  0.12264304  0.84106923  0.86670680     0.16300
H965        H  0.41164546  0.82465712  0.83233749     0.16300
H966        H  0.40240498  0.81627955  0.87523220     0.16300
H967        H  0.22792327  0.86311545  0.75947829     0.14600
H968        H  0.30998634  0.86776292  0.76508985     0.14600
H969        H  0.20098616  0.79964259  0.92304517     0.14600
H970        H  0.27323137  0.83524503  0.92806307     0.14600
H971        H  0.21756606  0.78646210  0.82910921     0.27900
H972        H  0.28685030  0.85646819  0.84764828     0.27900
N973        N  0.26631269  0.70643808  0.88276876    -0.34900
N974        N  0.32287794  0.66423310  0.84211770    -0.55500
N975        N  0.25363523  0.65502197  0.81176708    -0.34900
N976        N  0.20247547  0.69705780  0.84202348    -0.55500
C977        C  0.30780379  0.70848434  0.87944899     0.28700
C978        C  0.25006093  0.73973472  0.87397069     0.28700
C979        C  0.28540475  0.64908289  0.79755299     0.28700
C980        C  0.21746531  0.65555885  0.79986480     0.28700
C981        C  0.34576587  0.65888136  0.86079755     0.37300
C982        C  0.34314422  0.64653936  0.82565985     0.37300
C983        C  0.18462459  0.71907958  0.85791602     0.37300
C984        C  0.17127755  0.68198423  0.82915806     0.37300
C985        C  0.31739895  0.74179049  0.86731168    -0.20200
C986        C  0.28058197  0.76135142  0.86377876    -0.20200
C987        C  0.26888744  0.64459497  0.77628957    -0.20200
C988        C  0.22599260  0.64808905  0.77779571    -0.20200
C989        C  0.38126454  0.63733435  0.85631102    -0.21300
C990        C  0.38006371  0.63030112  0.83379743    -0.21200
C991        C  0.14159256  0.71767678  0.85537951    -0.21300
C992        C  0.13307120  0.69359826  0.83739390    -0.21200
C993        C  0.33464938  0.67626600  0.88096277    -0.16600
C994        C  0.20760221  0.74683986  0.87078082    -0.16600
C995        C  0.17721381  0.66262072  0.80858323    -0.16600
C996        C  0.32835770  0.64508035  0.80355630    -0.16600
H997        H  0.34714624  0.74889965  0.86001981     0.16300
H998        H  0.27563294  0.78614521  0.85294830     0.16300
H999        H  0.28586305  0.63861485  0.76131839     0.16300
H1000       H  0.20374041  0.64617036  0.76412810     0.16300
H1001       H  0.40603546  0.62848115  0.86760888     0.14600
H1002       H  0.40309818  0.61413552  0.82462089     0.14600
H1003       H  0.11895940  0.73396850  0.86474800     0.14600
H1004       H  0.10242565  0.68764234  0.83028499     0.14600
H1005       H  0.24983607  0.68269761  0.88946789     0.27900
H1006       H  0.25549824  0.65514326  0.82893589     0.27900
O1007       O  0.43766273  0.93306346  0.68842749    -0.73600
O1008       O  0.46675002  0.88510935  0.71023496    -0.52500
C1009       C  0.44687701  0.89716412  0.69286196     0.80100
O1010       O  0.07958348  0.56563872  0.69019053    -0.58200
O1011       O  0.04789224  0.61302972  0.71088286    -0.51200
C1012       C  0.07126311  0.60147007  0.69497123     0.72100
O1013       O  0.06915462  0.93710881  0.68726587    -0.72800
O1014       O  0.04083861  0.88904307  0.70909580    -0.53300
C1015       C  0.06044610  0.90112254  0.69189043     0.78100
O1016       O  0.42419076  0.56278714  0.69144865    -0.57900
O1017       O  0.46086248  0.61211153  0.70895792    -0.51000
C1018       C  0.43517708  0.59899592  0.69405208     0.74700
Zr1019     Zr  0.44207517  0.99692324  0.70628369     2.54700
O1020       O  0.42364690  0.00030995  0.66701413    -0.78500
O1021       O  0.36797436  0.98794214  0.71318836    -0.91900
Zr1022     Zr  0.05853423  0.00154381  0.70327571     2.64700
O1023       O  0.04973243  0.00396841  0.66308957    -0.96800
O1024       O  0.13429677  0.99649834  0.70267630    -0.78900
O1025       O  0.99772600  0.96273457  0.70605008    -0.82300
O1026       O  0.00016710  0.53802493  0.70548496    -2.17000
O1027       O  0.41586513  0.56354416  0.77408543    -0.65600
O1028       O  0.45040859  0.61343751  0.75659402    -0.50200
C1029       C  0.42022343  0.59962371  0.76827521     0.73100
O1030       O  0.10097235  0.93795991  0.77444513    -0.58600
O1031       O  0.06168733  0.88926125  0.75787852    -0.50500
C1032       C  0.09366054  0.90192305  0.76914937     0.74900
O1033       O  0.09634897  0.56881734  0.77813893    -0.69900
O1034       O  0.05520017  0.61568013  0.76157029    -0.48600
C1035       C  0.08607844  0.60470858  0.77423762     0.76300
O1036       O  0.42185525  0.93094095  0.77872556    -0.65300
O1037       O  0.45920349  0.88353678  0.76113877    -0.52500
C1038       C  0.42980531  0.89499013  0.77407733     0.74700
Zr1039     Zr  0.44953156  0.99598804  0.77161296     2.77500
O1040       O  0.47294884  0.00152511  0.81007866    -0.96000
O1041       O  0.38230588  0.99438153  0.78988054    -0.76800
Zr1042     Zr  0.07066301  0.00237262  0.76835236     2.70100
O1043       O  0.07176345  0.00035746  0.80871847    -0.78100
O1044       O  0.14662526  0.00498728  0.76663337    -0.97200
Zr1045     Zr  0.00449801  0.92317040  0.73842828     2.21500
Zr1046     Zr  0.00512144  0.57832520  0.73795231     2.11100
O1047       O  0.01243160  0.54102038  0.77153266    -2.45900
O1048       O  0.01104307  0.96072939  0.77189178    -0.77900
O1049       O  0.44470805  0.53893499  0.73961605    -0.70100
O1050       O  0.06578098  0.96343533  0.73565362    -2.31000
O1051       O  0.44422075  0.95763731  0.73863949    -2.27200
O1052       O  0.06757832  0.54056049  0.73545369    -0.71800
H1053       H  0.99874946  0.55355931  0.69211849     0.80200
H1054       H  0.09038217  0.94773673  0.73377716     0.81200
H1055       H  0.01409600  0.55830583  0.78423781     0.83500
H1056       H  0.41996574  0.94061165  0.73823360     0.81100
H1057       H  0.14093787  0.99476498  0.68674123     0.44100
H1058       H  0.15294301  0.02796547  0.75707924     0.43100
H1059       H  0.08043566  0.97320419  0.81258765     0.42800
H1060       H  0.47385573  0.53752494  0.81446814     0.40700
H1061       H  0.36139454  0.99204044  0.77766154     0.43800
H1062       H  0.35667568  0.97601163  0.69934251     0.38600
H1063       H  0.45081888  0.00182288  0.65945552     0.44700
H1064       H  0.03024019  0.02598178  0.66015859     0.41100
H1065       H  0.46025100  0.97845680  0.81752018     0.46100
H1066       H  0.35657614  0.01500120  0.71320436     0.44800
H1067       H  0.07693410  0.01343156  0.65754135     0.44900
H1068       H  0.15605876  0.01303112  0.78167867     0.45300
N1069       N  0.25249627  0.58000894  0.13492093    -0.34900
N1070       N  0.18283648  0.60682347  0.10706310    -0.55500
N1071       N  0.24076116  0.63143879  0.07332770    -0.34900
N1072       N  0.31050152  0.60722906  0.10140683    -0.55500
C1073       C  0.22065686  0.57770841  0.14941678     0.28700
C1074       C  0.28884385  0.57891252  0.14678992     0.28700
C1075       C  0.20510890  0.64889189  0.06615081     0.28700
C1076       C  0.27266650  0.64848378  0.06235006     0.28700
C1077       C  0.16140443  0.58704794  0.12262218     0.37300
C1078       C  0.15522110  0.61441222  0.09048277     0.37300
C1079       C  0.33813629  0.59030039  0.11570003     0.37300
C1080       C  0.33148769  0.61551136  0.08265056     0.37300
C1081       C  0.23692874  0.57412692  0.17076131    -0.20200
C1082       C  0.27987591  0.57490565  0.16911671    -0.20200
C1083       C  0.21448240  0.67779852  0.05079417    -0.20200
C1084       C  0.25655926  0.67641210  0.04766907    -0.20200
C1085       C  0.12003243  0.58210993  0.11588698    -0.21300
C1086       C  0.11615181  0.59942323  0.09547259    -0.21200
C1087       C  0.37699522  0.58806786  0.10605056    -0.21300
C1088       C  0.37282314  0.60389579  0.08516751    -0.21200
C1089       C  0.17745617  0.57718369  0.14373088    -0.16600
C1090       C  0.32974656  0.57990802  0.13793980    -0.16600
C1091       C  0.31525245  0.63750015  0.06441765    -0.16600
C1092       C  0.16412923  0.63709695  0.07164406    -0.16600
H1093       H  0.21966652  0.57120121  0.18594888     0.16300
H1094       H  0.30197153  0.57272869  0.18283485     0.16300
H1095       H  0.19320135  0.69724483  0.04204773     0.16300
H1096       H  0.27209742  0.69379880  0.03531546     0.16300
H1097       H  0.09504754  0.56808681  0.12490073     0.14600
H1098       H  0.08767715  0.60120838  0.08560566     0.14600
H1099       H  0.40564440  0.57702646  0.11346414     0.14600
H1100       H  0.39792796  0.60769131  0.07356840     0.14600
H1101       H  0.24951323  0.57864416  0.11778181     0.27900
H1102       H  0.24268028  0.60602688  0.08292233     0.27900
N1103       N  0.25146066  0.91777552  0.13195941    -0.34900
N1104       N  0.31588763  0.90199608  0.09885164    -0.55500
N1105       N  0.25178774  0.87429377  0.06812017    -0.34900
N1106       N  0.18677153  0.89536915  0.10030538    -0.55500
C1107       C  0.28570350  0.93306003  0.14237238     0.28700
C1108       C  0.21730211  0.92992646  0.14304883     0.28700
C1109       C  0.28494163  0.87793693  0.05448053     0.28700
C1110       C  0.21671188  0.87395715  0.05521614     0.28700
C1111       C  0.34063223  0.90805534  0.11692647     0.37300
C1112       C  0.34079590  0.88698080  0.08307960     0.37300
C1113       C  0.16270736  0.89944459  0.11845138     0.37300
C1114       C  0.16288676  0.87688382  0.08473489     0.37300
C1115       C  0.27318949  0.95530855  0.16033967    -0.20200
C1116       C  0.23011713  0.95338189  0.16074572    -0.20200
C1117       C  0.27062086  0.88036105  0.03271643    -0.20200
C1118       C  0.22769003  0.87774397  0.03317004    -0.20200
C1119       C  0.38139869  0.89741298  0.11246923    -0.21300
C1120       C  0.38147816  0.88393389  0.09113443    -0.21200
C1121       C  0.12320773  0.88405736  0.11423840    -0.21300
C1122       C  0.12336022  0.86957652  0.09301075    -0.21200
C1123       C  0.32786948  0.92499781  0.13706199    -0.16600
C1124       C  0.17530088  0.91816345  0.13849467    -0.16600
C1125       C  0.17520086  0.86864836  0.06273328    -0.16600
C1126       C  0.32777574  0.87768029  0.06119525    -0.16600
H1127       H  0.29306881  0.97084555  0.17214695     0.16300
H1128       H  0.21053038  0.96716866  0.17291461     0.16300
H1129       H  0.28913409  0.88394318  0.01800542     0.16300
H1130       H  0.20690031  0.87884959  0.01885493     0.16300
H1131       H  0.40846496  0.89925447  0.12341964     0.14600
H1132       H  0.40861438  0.87311036  0.08267941     0.14600
H1133       H  0.09698808  0.88324210  0.12531652     0.14600
H1134       H  0.09713324  0.85537555  0.08468291     0.14600
H1135       H  0.25192621  0.89652432  0.11962754     0.27900
H1136       H  0.25307196  0.86799480  0.08499844     0.27900
C1137       C  0.11271726  0.63370390  0.78509500    -0.11600
C1138       C  0.14066266  0.65002916  0.79548801    -0.13100
C1139       C  0.38799269  0.62497543  0.77611835    -0.11600
C1140       C  0.35903002  0.63669209  0.78679605    -0.13100
C1141       C  0.15467105  0.85830622  0.78473585    -0.11600
C1142       C  0.12530154  0.87475236  0.77614860    -0.13100
C1143       C  0.37305911  0.85455429  0.79515346    -0.11600
C1144       C  0.40185670  0.86710475  0.78432835    -0.13100
C1145       C  0.12821887  0.65105926  0.05790348    -0.14700
C1146       C  0.12837908  0.65000569  0.03570563    -0.29900
H1147       H  0.10143237  0.66319498  0.06631509     0.14300
H1148       H  0.15513896  0.63839365  0.02707805     0.14900
C1149       C  0.34496542  0.64923680  0.04684426    -0.14700
C1150       C  0.35074906  0.68673318  0.04028537    -0.29900
H1151       H  0.36477870  0.62643054  0.04010218     0.14300
H1152       H  0.33348331  0.71075322  0.04753994     0.14900
C1153       C  0.14161128  0.85571618  0.04675920    -0.14700
C1154       C  0.14551168  0.82413768  0.03347565    -0.29900
H1155       H  0.11148135  0.87011496  0.04765637     0.14300
H1156       H  0.17527069  0.80897976  0.03286242     0.14900
C1157       C  0.35792129  0.83713948  0.03106857    -0.14700
C1158       C  0.36137437  0.86780830  0.04501466    -0.29900
H1159       H  0.32830877  0.82143380  0.02975599     0.14300
H1160       H  0.39122621  0.88307107  0.04631431     0.14900
C1161       C  0.13123521  0.75982708  0.92050566    -0.14700
C1162       C  0.15893319  0.73214843  0.92702356    -0.29900
H1163       H  0.11724136  0.75734807  0.90402956     0.14300
H1164       H  0.17272435  0.73386031  0.94357211     0.14900
C1165       C  0.34140566  0.81206515  0.90786778    -0.14700
C1166       C  0.37594150  0.82866060  0.91668139    -0.29900
H1167       H  0.32927580  0.78476936  0.91477135     0.14300
H1168       H  0.38759840  0.85583045  0.90938536     0.14900
C1169       C  0.12762160  0.66519983  0.92419339    -0.14700
C1170       C  0.15632873  0.69193646  0.91736082    -0.29900
H1171       H  0.12484630  0.63728409  0.91549595     0.14300
H1172       H  0.17732098  0.68419784  0.90417072     0.14900
C1173       C  0.35225891  0.68806565  0.92073483    -0.14700
C1174       C  0.36143107  0.67165428  0.90113647    -0.29900
H1175       H  0.32202814  0.70168995  0.92307386     0.14300
H1176       H  0.39140364  0.65742597  0.89948714     0.14900
C1177       C  0.38952942  0.93976938  0.16606732    -0.11600
C1178       C  0.36073107  0.93406325  0.15323056    -0.13100
C1179       C  0.14338240  0.92555460  0.15522664    -0.11600
C1180       C  0.11688042  0.93185111  0.16904259    -0.13100
C1181       C  0.39389452  0.56344681  0.16545817    -0.11600
C1182       C  0.36531379  0.57107274  0.15267707    -0.13100
C1183       C  0.14692696  0.56826200  0.16051257    -0.11600
C1184       C  0.11885963  0.56141374  0.17306262    -0.13100
C1185       C  0.09802373  0.65216208  0.66550632    -0.11600
C1186       C  0.08781642  0.63023567  0.68016150    -0.13100
C1187       C  0.08086286  0.85003985  0.66125436    -0.11600
C1188       C  0.07240529  0.87261467  0.67583701    -0.13100
C1189       C  0.41481921  0.64836301  0.66229928    -0.11600
C1190       C  0.42073305  0.62614815  0.67756812    -0.13100
C1191       C  0.42978270  0.84665137  0.66115580    -0.11600
C1192       C  0.43596549  0.86895825  0.67628619    -0.13100
C1193       C  0.35090882  0.64758510  0.53220971    -0.14700
C1194       C  0.37957094  0.64451886  0.54869211    -0.29900
H1195       H  0.33586718  0.67567674  0.52895909     0.14300
H1196       H  0.39305805  0.61588568  0.55240657     0.14900
C1197       C  0.35167021  0.84836807  0.53371391    -0.14700
C1198       C  0.38414024  0.85086828  0.54808630    -0.29900
H1199       H  0.33477343  0.82066080  0.53180765     0.14300
H1200       H  0.40024982  0.87893983  0.55019644     0.14900
C1201       C  0.18472233  0.64734716  0.53953959    -0.14700
C1202       C  0.15733678  0.64463197  0.55617597    -0.29900
H1203       H  0.19880716  0.67560593  0.53549888     0.14300
H1204       H  0.14459125  0.61583969  0.56034211     0.14900
C1205       C  0.18108665  0.84809368  0.53800764    -0.14700
C1206       C  0.14995521  0.85147758  0.55260788    -0.29900
H1207       H  0.19673171  0.82008624  0.53583156     0.14300
H1208       H  0.13516002  0.87996982  0.55461218     0.14900
C1209       C  0.07762015  0.64020034  0.32674060    -0.11600
C1210       C  0.07145541  0.61013389  0.31612101    -0.13100
C1211       C  0.07248975  0.87999534  0.31432394    -0.11600
C1212       C  0.07979856  0.85007454  0.32489141    -0.13100
C1213       C  0.16514020  0.64967593  0.43255165    -0.14700
C1214       C  0.15130103  0.61295107  0.43622655    -0.29900
H1215       H  0.19231429  0.66076813  0.44168321     0.14300
H1216       H  0.12368693  0.60200137  0.42743793     0.14900
C1217       C  0.17382576  0.84543902  0.42901634    -0.14700
C1218       C  0.16034413  0.88215907  0.43248235    -0.29900
H1219       H  0.20077226  0.83446200  0.43827792     0.14300
H1220       H  0.13279110  0.89282800  0.42363498     0.14900
C1221       C  0.42831269  0.61169261  0.31119326    -0.11600
C1222       C  0.42334934  0.64184080  0.32177200    -0.13100
C1223       C  0.42612272  0.88240492  0.31035339    -0.11600
C1224       C  0.42121161  0.85261835  0.32131471    -0.13100
C1225       C  0.33295988  0.61127137  0.42221224    -0.14700
C1226       C  0.34584767  0.64787574  0.42703650    -0.29900
H1227       H  0.33387490  0.60021938  0.40535133     0.14300
H1228       H  0.34403837  0.65813295  0.44406276     0.14900
C1229       C  0.35154024  0.84757311  0.42836359    -0.14700
C1230       C  0.33826656  0.88408642  0.42364129    -0.29900
H1231       H  0.35003698  0.83716538  0.44539102     0.14300
H1232       H  0.33876464  0.89509803  0.40674665     0.14900
N1233       N  0.91105159  0.24628905  0.34784187    -0.34900
N1234       N  0.90216611  0.18661269  0.38234688    -0.55500
N1235       N  0.88094591  0.24757409  0.41447494    -0.34900
N1236       N  0.89506730  0.30731764  0.38101362    -0.55500
C1237       C  0.92537534  0.21412965  0.33696186     0.28700
C1238       C  0.92291213  0.27908909  0.33654170     0.28700
C1239       C  0.88798549  0.21633167  0.42793221     0.28700
C1240       C  0.88415659  0.28038993  0.42713056     0.28700
C1241       C  0.90373970  0.16285645  0.36433960     0.37300
C1242       C  0.88825878  0.16390329  0.39920836     0.37300
C1243       C  0.89471875  0.32955394  0.36241297     0.37300
C1244       C  0.87841148  0.32986043  0.39704196     0.37300
C1245       C  0.94576156  0.22668301  0.31808070    -0.20200
C1246       C  0.94430812  0.26754775  0.31784651    -0.20200
C1247       C  0.89618346  0.22942492  0.44933973    -0.20200
C1248       C  0.89378769  0.26994571  0.44882911    -0.20200
C1249       C  0.89111572  0.12498960  0.36987390    -0.21300
C1250       C  0.88100621  0.12570981  0.39181979    -0.21200
C1251       C  0.87772480  0.36625644  0.36666359    -0.21300
C1252       C  0.86714795  0.36635921  0.38852991    -0.21200
C1253       C  0.91892354  0.17394888  0.34331996    -0.16600
C1254       C  0.91306359  0.31881040  0.34222897    -0.16600
C1255       C  0.87647838  0.31918875  0.41962680    -0.16600
C1256       C  0.88451301  0.17636892  0.42149443    -0.16600
H1257       H  0.96018709  0.20833244  0.30574547     0.16300
H1258       H  0.95726631  0.28655761  0.30524985     0.16300
H1259       H  0.90307553  0.21162777  0.46383279     0.16300
H1260       H  0.89854458  0.28944714  0.46283800     0.16300
H1261       H  0.88933671  0.09938328  0.35921013     0.14600
H1262       H  0.86977340  0.10070547  0.40119123     0.14600
H1263       H  0.87370425  0.39063397  0.35524293     0.14600
H1264       H  0.85330503  0.39082536  0.39717847     0.14600
H1265       H  0.89108957  0.24575555  0.36120918     0.27900
H1266       H  0.86967830  0.24624061  0.39820553     0.27900
N1267       N  0.60774405  0.18914152  0.38064546    -0.34900
N1268       N  0.57406773  0.24794009  0.35053438    -0.55500
N1269       N  0.60923815  0.30764458  0.38035953    -0.34900
N1270       N  0.63908856  0.24886730  0.41146764    -0.55500
C1271       C  0.58294671  0.16693485  0.36718714     0.28700
C1272       C  0.61478860  0.16795259  0.39935287     0.28700
C1273       C  0.58508082  0.33003032  0.36683322     0.28700
C1274       C  0.62017127  0.33016937  0.39804645     0.28700
C1275       C  0.56922663  0.21574704  0.33739614     0.37300
C1276       C  0.56899691  0.28020609  0.33750573     0.37300
C1277       C  0.65936424  0.21667707  0.41901155     0.37300
C1278       C  0.66203036  0.28029951  0.41813220     0.37300
C1279       C  0.57365896  0.13150542  0.37751184    -0.20200
C1280       C  0.59343511  0.13227771  0.39790098    -0.20200
C1281       C  0.57991587  0.36698123  0.37623810    -0.20200
C1282       C  0.60192244  0.36701654  0.39597588    -0.20200
C1283       C  0.55934972  0.22759809  0.31595160    -0.21300
C1284       C  0.55912867  0.26843253  0.31602873    -0.21200
C1285       C  0.69567336  0.22762572  0.43030613    -0.21300
C1286       C  0.69736425  0.26807695  0.42974321    -0.21200
C1287       C  0.57229008  0.17612267  0.34503100    -0.16600
C1288       C  0.64408959  0.17790601  0.41628471    -0.16600
C1289       C  0.64985479  0.31969101  0.41459083    -0.16600
C1290       C  0.57252819  0.31987171  0.34504525    -0.16600
H1291       H  0.55513022  0.10733487  0.37086038     0.16300
H1292       H  0.59318128  0.10865816  0.40998109     0.16300
H1293       H  0.56318194  0.39181659  0.36923702     0.16300
H1294       H  0.60524572  0.39186304  0.40711664     0.16300
H1295       H  0.55281929  0.20883836  0.30180149     0.14600
H1296       H  0.55253205  0.28726477  0.30191623     0.14600
H1297       H  0.71896182  0.20862454  0.43781384     0.14600
H1298       H  0.72206479  0.28625027  0.43681871     0.14600
H1299       H  0.62397002  0.21438364  0.37594522     0.27900
H1300       H  0.62275508  0.28099785  0.37611778     0.27900
O1301       O  0.68479599  0.41905809  0.45348816    -0.73600
O1302       O  0.71329705  0.37897222  0.47996220    -0.52500
C1303       C  0.69242120  0.38495385  0.46191340     0.80100
O1304       O  0.83875547  0.07844938  0.45642004    -0.58200
O1305       O  0.80169275  0.11784788  0.47948904    -0.51200
C1306       C  0.82839241  0.11240257  0.46411301     0.72100
O1307       O  0.83084047  0.41732536  0.45406037    -0.72800
O1308       O  0.79886428  0.37800813  0.47944362    -0.53300
C1309       C  0.82198657  0.38343456  0.46247838     0.78100
O1310       O  0.67964259  0.07840990  0.45457935    -0.57900
O1311       O  0.71265138  0.11787900  0.48008126    -0.51000
C1312       C  0.68859207  0.11227897  0.46305662     0.74700
Zr1313     Zr  0.69268696  0.48803493  0.46359688     2.54700
O1314       O  0.67300805  0.47901700  0.42477874    -0.78500
O1315       O  0.61863122  0.00988340  0.46468727    -0.91900
Zr1316     Zr  0.81729171  0.48686988  0.46062157     2.64700
O1317       O  0.82075458  0.47034829  0.42140973    -0.96800
O1318       O  0.89441671  0.00721460  0.46208945    -0.78900
O1319       O  0.75470945  0.45061458  0.46520128    -0.82300
O1320       O  0.75676140  0.04632793  0.46400640    -2.17000
O1321       O  0.68448373  0.04803654  0.54633967    -0.65600
O1322       O  0.71561360  0.10066323  0.52956004    -0.50200
C1323       C  0.69360746  0.08490974  0.54493993     0.73100
O1324       O  0.83218684  0.44874720  0.54805707    -0.58600
O1325       O  0.80337012  0.39600451  0.52982215    -0.50500
C1326       C  0.82458045  0.41174110  0.54583653     0.74900
O1327       O  0.83904855  0.04620469  0.54490122    -0.69900
O1328       O  0.80664699  0.09868505  0.52831051    -0.48600
C1329       C  0.83097031  0.08310434  0.54308015     0.76300
O1330       O  0.68836712  0.44844841  0.54868730    -0.65300
O1331       O  0.71425158  0.39568142  0.52998954    -0.52500
C1332       C  0.69440695  0.41137722  0.54608913     0.74700
Zr1333     Zr  0.69524632  0.98839251  0.52452079     2.77500
O1334       O  0.70280897  0.52106269  0.56754289    -0.96000
O1335       O  0.62445159  0.50582742  0.52668733    -0.76800
Zr1336     Zr  0.82026950  0.98672936  0.52471756     2.70100
O1337       O  0.82178546  0.97279960  0.56429840    -0.78100
O1338       O  0.89843789  0.49717332  0.51661432    -0.97200
Zr1339     Zr  0.75797936  0.42311890  0.50136613     2.21500
Zr1340     Zr  0.75810663  0.07296722  0.50052467     2.11100
O1341       O  0.75865070  0.02415325  0.52904542    -2.45900
O1342       O  0.76234980  0.47089132  0.53010835    -0.77900
O1343       O  0.69373291  0.03752118  0.49660770    -0.70100
O1344       O  0.82209771  0.45825820  0.49649796    -2.31000
O1345       O  0.69471527  0.45985898  0.49952517    -2.27200
O1346       O  0.82072166  0.03604952  0.49667834    -0.71800
H1347       H  0.75686319  0.06697039  0.45298307     0.80200
H1348       H  0.84567381  0.44094406  0.49772223     0.81200
H1349       H  0.75986311  0.03588015  0.54363431     0.83500
H1350       H  0.67077202  0.44299759  0.50177042     0.81100
H1351       H  0.90265033  0.46875470  0.45318776     0.44100
H1352       H  0.90450987  0.01419864  0.52263971     0.43100
H1353       H  0.82159158  0.53115582  0.56984976     0.42800
H1354       H  0.69657882  0.98566824  0.57199691     0.40700
H1355       H  0.60848932  0.96924457  0.52404917     0.43800
H1356       H  0.61341037  0.45395340  0.47323681     0.38600
H1357       H  0.69929886  0.47154240  0.41751763     0.44700
H1358       H  0.80122010  0.05059660  0.41980915     0.41100
H1359       H  0.64916494  0.98703576  0.56486961     0.46100
H1360       H  0.60422053  0.49088245  0.45842129     0.44800
H1361       H  0.84796811  0.48097516  0.41652967     0.44900
H1362       H  0.90601782  0.97416712  0.53561917     0.45300
N1363       N  0.87071141  0.18716741  0.61387492    -0.34900
N1364       N  0.88049462  0.24785484  0.64729977    -0.55500
N1365       N  0.87296622  0.30783501  0.61484018    -0.34900
N1366       N  0.86282624  0.24759836  0.58100903    -0.55500
C1367       C  0.89028463  0.16823552  0.63069866     0.28700
C1368       C  0.87976699  0.16788947  0.59499555     0.28700
C1369       C  0.89342549  0.32726276  0.63131938     0.28700
C1370       C  0.87987379  0.32768228  0.59588198     0.28700
C1371       C  0.87587911  0.21598174  0.66025128     0.37300
C1372       C  0.87923347  0.27938950  0.66076005     0.37300
C1373       C  0.84874721  0.21594899  0.56954868     0.37300
C1374       C  0.84783444  0.27952812  0.57030917     0.37300
C1375       C  0.91257337  0.13666693  0.62248609    -0.20200
C1376       C  0.90629234  0.13673720  0.59979674    -0.20200
C1377       C  0.91399842  0.35979364  0.62270990    -0.20200
C1378       C  0.90552195  0.35996772  0.60020248    -0.20200
C1379       C  0.87010564  0.22724824  0.68209108    -0.21300
C1380       C  0.87244731  0.26771588  0.68242122    -0.21200
C1381       C  0.82388211  0.22773543  0.55172300    -0.21300
C1382       C  0.82324164  0.26816348  0.55223398    -0.21200
C1383       C  0.88619479  0.17804922  0.65321306    -0.16600
C1384       C  0.86192676  0.17724322  0.57408672    -0.16600
C1385       C  0.86032608  0.31835203  0.57540851    -0.16600
C1386       C  0.89139102  0.31713769  0.65392551    -0.16600
H1387       H  0.93149020  0.11594713  0.63184010     0.16300
H1388       H  0.91971767  0.11624411  0.58822504     0.16300
H1389       H  0.93278164  0.38126854  0.63170888     0.16300
H1390       H  0.91662324  0.38154606  0.58842294     0.16300
H1391       H  0.86749534  0.20825875  0.69644341     0.14600
H1392       H  0.87167432  0.28620239  0.69701381     0.14600
H1393       H  0.80817057  0.20938781  0.53948247     0.14600
H1394       H  0.80711084  0.28690223  0.54039656     0.14600
H1395       H  0.84861309  0.20941367  0.61551206     0.27900
H1396       H  0.85124729  0.28506928  0.61665776     0.27900
N1397       N  0.64560638  0.30987369  0.61641106    -0.34900
N1398       N  0.63598473  0.25033119  0.64956068    -0.55500
N1399       N  0.65131924  0.18820717  0.61766877    -0.34900
N1400       N  0.66041706  0.24821841  0.58416622    -0.55500
C1401       C  0.62406978  0.32965393  0.63189321     0.28700
C1402       C  0.64007161  0.32903976  0.59696365     0.28700
C1403       C  0.63097234  0.16856889  0.63379075     0.28700
C1404       C  0.64671447  0.16709823  0.59873041     0.28700
C1405       C  0.63455485  0.28249274  0.66258372     0.37300
C1406       C  0.63778445  0.21904093  0.66325043     0.37300
C1407       C  0.67430494  0.28031899  0.57323207     0.37300
C1408       C  0.67672753  0.21674238  0.57381726     0.37300
C1409       C  0.60464928  0.36195201  0.62219735    -0.20200
C1410       C  0.61457469  0.36142205  0.60004681    -0.20200
C1411       C  0.61344143  0.13432834  0.62508505    -0.20200
C1412       C  0.62294981  0.13364030  0.60287748    -0.20200
C1413       C  0.63695718  0.27177460  0.68474787    -0.21300
C1414       C  0.63904820  0.23137773  0.68517630    -0.21200
C1415       C  0.70028904  0.26929462  0.55619006    -0.21300
C1416       C  0.70181634  0.22893707  0.55655575    -0.21200
C1417       C  0.62329490  0.31986494  0.65461493    -0.16600
C1418       C  0.66007431  0.31883859  0.57708832    -0.16600
C1419       C  0.66498876  0.17745709  0.57825986    -0.16600
C1420       C  0.62909459  0.18044478  0.65620402    -0.16600
H1421       H  0.58535047  0.38357907  0.63022525     0.16300
H1422       H  0.60425321  0.38250257  0.58766992     0.16300
H1423       H  0.59525521  0.11236501  0.63375696     0.16300
H1424       H  0.61282615  0.11130720  0.59115466     0.16300
H1425       H  0.63468748  0.29082152  0.69905102     0.14600
H1426       H  0.63857748  0.21309618  0.69989415     0.14600
H1427       H  0.71599338  0.28820482  0.54446865     0.14600
H1428       H  0.71894853  0.21074961  0.54517896     0.14600
H1429       H  0.66665776  0.28705343  0.61931663     0.27900
H1430       H  0.67047702  0.21289445  0.61990877     0.27900
O1431       O  0.93464784  0.08911230  0.28068719    -0.73600
O1432       O  0.96499826  0.05022659  0.30755727    -0.52500
C1433       C  0.94499567  0.08151978  0.30093944     0.80100
O1434       O  0.91159674  0.42219629  0.20805077    -0.58200
O1435       O  0.95241247  0.45094454  0.18167461    -0.51200
C1436       C  0.92023423  0.43096469  0.18791817     0.72100
O1437       O  0.92915058  0.40584812  0.28107061    -0.72800
O1438       O  0.96100614  0.44312382  0.30825580    -0.53300
C1439       C  0.93985288  0.41263064  0.30133273     0.78100
O1440       O  0.91729298  0.07480316  0.20680553    -0.57900
O1441       O  0.95693256  0.04518189  0.18045827    -0.51000
C1442       C  0.92574767  0.06630515  0.18654508     0.74700
Zr1443     Zr  0.94502140  0.06017059  0.24418011     2.54700
O1444       O  0.86959962  0.05695317  0.24832897    -0.78500
O1445       O  0.94579255  0.13153313  0.23948719    -0.91900
Zr1446     Zr  0.94087827  0.43494012  0.24482875     2.64700
O1447       O  0.86562202  0.43715114  0.24972658    -0.96800
O1448       O  0.94182026  0.36367196  0.24002516    -0.78900
O1449       O  0.94113424  0.00141912  0.26633283    -0.82300
O1450       O  0.94372172  0.00321320  0.22225487    -2.17000
O1451       O  0.59816780  0.07232296  0.21171156    -0.65600
O1452       O  0.55879645  0.04571114  0.18333307    -0.50200
C1453       C  0.59063402  0.06498453  0.19116069     0.73100
O1454       O  0.56990264  0.40635843  0.28296351    -0.58600
O1455       O  0.53642421  0.44467073  0.30841262    -0.50500
C1456       C  0.55710255  0.41371279  0.30262137     0.74900
O1457       O  0.59219143  0.41873797  0.20956702    -0.69900
O1458       O  0.55456385  0.44921408  0.18191549    -0.48600
C1459       C  0.58496541  0.42756393  0.18905074     0.76300
O1460       O  0.57185759  0.08790241  0.28358577    -0.65300
O1461       O  0.53745190  0.04930070  0.30872606    -0.52500
C1462       C  0.55822804  0.08067819  0.30312853     0.74700
Zr1463     Zr  0.56579269  0.05793344  0.24690187     2.77500
O1464       O  0.63953202  0.05055130  0.25641799    -0.96000
O1465       O  0.57060729  0.12901568  0.24199232    -0.76800
Zr1466     Zr  0.56262463  0.43451120  0.24588327     2.70100
O1467       O  0.63746194  0.44220188  0.25268478    -0.78100
O1468       O  0.56400732  0.36274418  0.24415434    -0.97200
Zr1469     Zr  0.49889133  0.99823038  0.28704209     2.21500
Zr1470     Zr  0.50486559  0.00490321  0.20032276     2.11100
O1471       O  0.56540638  0.00198863  0.22387322    -2.45900
O1472       O  0.56422215  0.99826547  0.26793796    -0.77900
O1473       O  0.50547081  0.06262406  0.22306456    -0.70100
O1474       O  0.49902139  0.43724036  0.26460723    -2.31000
O1475       O  0.50187038  0.05677101  0.26515255    -2.27200
O1476       O  0.50182590  0.43267586  0.22230169    -0.71800
H1477       H  0.91882528  0.00411581  0.21302488     0.80200
H1478       H  0.49826633  0.41337542  0.27319783     0.81200
H1479       H  0.59104540  0.00169323  0.21567450     0.83500
H1480       H  0.50137484  0.08048815  0.27381595     0.81100
H1481       H  0.96028335  0.35927691  0.22727689     0.44100
H1482       H  0.55557449  0.35609905  0.22874046     0.43100
H1483       H  0.64960425  0.44625314  0.23786444     0.42800
H1484       H  0.65029382  0.03233922  0.24508112     0.40700
H1485       H  0.54127194  0.13803234  0.24197724     0.43800
H1486       H  0.96973726  0.14080293  0.24870912     0.38600
H1487       H  0.86535231  0.04051959  0.26168456     0.44700
H1488       H  0.85619104  0.45948388  0.24036702     0.41100
H1489       H  0.65217958  0.07640946  0.25274421     0.46100
H1490       H  0.92084149  0.14086618  0.24736261     0.44800
H1491       H  0.85474132  0.41341755  0.24196285     0.44900
H1492       H  0.59400927  0.35595201  0.24520065     0.45300
O1493       O  0.94030652  0.32061561  0.93377397    -0.73600
O1494       O  0.88617831  0.28918111  0.95064024    -0.52500
C1495       C  0.90141416  0.31308220  0.93622687     0.80100
O1496       O  0.56359306  0.15534734  0.93806120    -0.58200
O1497       O  0.61331530  0.18553161  0.95983641    -0.51200
C1498       C  0.60181563  0.16412734  0.94325338     0.72100
O1499       O  0.92100454  0.17619789  0.93294952    -0.72800
O1500       O  0.87425252  0.21015370  0.95344390    -0.53300
C1501       C  0.88393913  0.18831580  0.93699971     0.78100
O1502       O  0.57895146  0.28491202  0.92938462    -0.57900
O1503       O  0.62079967  0.26719006  0.95817031    -0.51000
C1504       C  0.61318743  0.27035132  0.93731145     0.74700
Zr1505     Zr  0.50968502  0.29343055  0.94594718     2.54700
O1506       O  0.50898252  0.30565457  0.90615561    -0.78500
O1507       O  0.52893689  0.36259861  0.94974044    -0.91900
Zr1508     Zr  0.49331922  0.17466102  0.95037182     2.64700
O1509       O  0.98572158  0.16075094  0.91045602    -0.96800
O1510       O  0.48017091  0.10688595  0.96178214    -0.82500
O1511       O  0.96541416  0.24220791  0.95171236    -0.82300
O1512       O  0.53817353  0.22944469  0.94937336    -2.17000
O1513       O  0.57348601  0.31275442  0.02498133    -0.65600
O1514       O  0.61899696  0.27013486  0.00901857    -0.50200
C1515       C  0.61033479  0.29840190  0.02235476     0.73100
O1516       O  0.91902950  0.17499334  0.02708393    -0.58600
O1517       O  0.87531083  0.21437651  0.00671716    -0.50500
C1518       C  0.88327956  0.19002589  0.02261029     0.74900
O1519       O  0.55530188  0.15617142  0.02803530    -0.69900
O1520       O  0.60820312  0.18129312  0.00729096    -0.48600
C1521       C  0.59382667  0.15866393  0.02245850     0.76300
O1522       O  0.92987908  0.31697282  0.02675920    -0.65300
O1523       O  0.88074478  0.29118923  0.00299542    -0.52500
C1524       C  0.89163013  0.31105509  0.02024419     0.74700
Zr1525     Zr  0.50175752  0.30148964  0.01111191     2.77500
O1526       O  0.49992479  0.31737283  0.05045696    -0.96000
O1527       O  0.50478923  0.37155194  0.00246291    -0.76800
Zr1528     Zr  0.48921115  0.18358161  0.01477383     2.70100
O1529       O  0.48899779  0.18249236  0.05511478    -0.78100
O1530       O  0.47259324  0.11348995  0.01259485    -0.97200
Zr1531     Zr  0.91781036  0.24726111  0.97900860     2.21500
Zr1532     Zr  0.57706256  0.23055822  0.98345021     2.11100
O1533       O  0.53487882  0.23886559  0.01524084    -2.45900
O1534       O  0.95581343  0.24369282  0.01298423    -0.77900
O1535       O  0.54690652  0.29465155  0.98028688    -0.70100
O1536       O  0.94759916  0.18278721  0.98085975    -2.31000
O1537       O  0.96191535  0.30447928  0.97986290    -2.27200
O1538       O  0.53247810  0.17411587  0.98398635    -0.71800
H1539       H  0.55381713  0.22386613  0.93637261     0.80200
H1540       H  0.92651017  0.16246747  0.98065621     0.81200
H1541       H  0.55159491  0.23816253  0.02870397     0.83500
H1542       H  0.94610619  0.32854216  0.97917024     0.81100
H1543       H  0.95822610  0.10113393  0.95148436     0.44100
H1544       H  0.49997398  0.10009844  0.01307065     0.43100
H1545       H  0.99058800  0.20517178  0.05927329     0.42800
H1546       H  0.51742336  0.29707769  0.05781231     0.40700
H1547       H  0.49633479  0.38473916  0.01629393     0.43800
H1548       H  0.00243152  0.38040750  0.95632019     0.38600
H1549       H  0.99698436  0.29351384  0.90170569     0.44700
H1550       H  0.51156172  0.16692523  0.90426143     0.41100
H1551       H  0.51612225  0.34220029  0.05207567     0.46100
H1552       H  0.54732536  0.36778830  0.93701786     0.44800
H1553       H  0.50468007  0.12374577  0.91299826     0.44900
H1554       H  0.45990736  0.10714138  0.02702896     0.45300
N1555       N  0.69390625  0.30346154  0.83605592    -0.34900
N1556       N  0.76222794  0.34017230  0.81243453    -0.55500
N1557       N  0.81730053  0.34789987  0.85169491    -0.34900
N1558       N  0.74366560  0.31374407  0.90184129    -0.55500
C1559       C  0.67464554  0.33077690  0.82344277     0.28700
C1560       C  0.67577316  0.30451311  0.85598368     0.28700
C1561       C  0.84606070  0.34717080  0.83539109     0.28700
C1562       C  0.83777226  0.34055478  0.87115790     0.28700
C1563       C  0.73081727  0.34343144  0.79718379     0.37300
C1564       C  0.79811024  0.34899120  0.80196402     0.37300
C1565       C  0.70441025  0.31193010  0.89148104     0.37300
C1566       C  0.77474684  0.33809913  0.89370011     0.37300
C1567       C  0.64235286  0.34786723  0.83505436    -0.20200
C1568       C  0.64430433  0.33228726  0.85613637    -0.20200
C1569       C  0.88539415  0.34154670  0.84485080    -0.20200
C1570       C  0.88012301  0.33666762  0.86725534    -0.20200
C1571       C  0.74679941  0.35371681  0.77680358    -0.21300
C1572       C  0.78949439  0.35672444  0.77974234    -0.21200
C1573       C  0.72351724  0.30232145  0.91138760    -0.21300
C1574       C  0.75869979  0.32295313  0.91378656    -0.21200
C1575       C  0.68800147  0.34265747  0.80249931    -0.16600
C1576       C  0.69277000  0.28553052  0.87441085    -0.16600
C1577       C  0.81820958  0.33203252  0.89156221    -0.16600
C1578       C  0.83838117  0.35069133  0.81217277    -0.16600
H1579       H  0.62205496  0.37145299  0.82953657     0.16300
H1580       H  0.62556148  0.34079738  0.87008045     0.16300
H1581       H  0.91477847  0.33925753  0.83635981     0.16300
H1582       H  0.90471774  0.32958803  0.87907881     0.16300
H1583       H  0.72941530  0.35949970  0.76161414     0.14600
H1584       H  0.81151522  0.36496785  0.76711368     0.14600
H1585       H  0.70583511  0.28848057  0.92602416     0.14600
H1586       H  0.77591484  0.32723842  0.93097114     0.14600
H1587       H  0.71955091  0.28637072  0.83174634     0.27900
H1588       H  0.78521036  0.35215328  0.84993740     0.27900
N1589       N  0.76189979  0.19710427  0.88053245    -0.34900
N1590       N  0.81689185  0.15602583  0.84290837    -0.55500
N1591       N  0.74798109  0.15104302  0.81241357    -0.34900
N1592       N  0.69833277  0.19378945  0.84300528    -0.55500
C1593       C  0.80389025  0.19907438  0.88055345     0.28700
C1594       C  0.74843195  0.23337756  0.87480533     0.28700
C1595       C  0.77970377  0.14598627  0.79806208     0.28700
C1596       C  0.71212458  0.15409081  0.80047707     0.28700
C1597       C  0.83866697  0.14786129  0.86159114     0.37300
C1598       C  0.83581003  0.13736729  0.82634078     0.37300
C1599       C  0.68172642  0.21769534  0.85838547     0.37300
C1600       C  0.66663782  0.18071386  0.82987179     0.37300
C1601       C  0.81715878  0.23554607  0.87318769    -0.20200
C1602       C  0.78159095  0.25692222  0.86920634    -0.20200
C1603       C  0.76344039  0.14492737  0.77661557    -0.20200
C1604       C  0.72064482  0.14932365  0.77817342    -0.20200
C1605       C  0.87183206  0.12326426  0.85702505    -0.21300
C1606       C  0.87056971  0.11733489  0.83441351    -0.21200
C1607       C  0.63881601  0.21955594  0.85524525    -0.21300
C1608       C  0.62911145  0.19540542  0.83743044    -0.21200
C1609       C  0.82996629  0.16638691  0.88172448    -0.16600
C1610       C  0.70670830  0.24356872  0.87144276    -0.16600
C1611       C  0.67217889  0.16114191  0.80939400    -0.16600
C1612       C  0.82214744  0.13934354  0.80413287    -0.16600
H1613       H  0.84873773  0.24429498  0.86923801     0.16300
H1614       H  0.77939141  0.28469004  0.86074198     0.16300
H1615       H  0.78045951  0.14046859  0.76148989     0.16300
H1616       H  0.69848032  0.14992610  0.76443156     0.16300
H1617       H  0.89513668  0.11171617  0.86842901     0.14600
H1618       H  0.89210718  0.09963722  0.82509657     0.14600
H1619       H  0.61721453  0.23803030  0.86402360     0.14600
H1620       H  0.59849198  0.19180142  0.82980196     0.14600
H1621       H  0.74365993  0.17219412  0.88378080     0.27900
H1622       H  0.74934949  0.14875162  0.82956358     0.27900
O1623       O  0.92610172  0.43312259  0.69408128    -0.73600
O1624       O  0.96271240  0.38659747  0.71366289    -0.52500
C1625       C  0.93695875  0.39748806  0.69828404     0.80100
O1626       O  0.58567246  0.06702273  0.69364244    -0.58200
O1627       O  0.54879736  0.11277818  0.71287733    -0.51200
C1628       C  0.57553860  0.10244574  0.69831505     0.72100
O1629       O  0.58032886  0.43590356  0.69060146    -0.72800
O1630       O  0.55122904  0.38921756  0.71307593    -0.53300
C1631       C  0.57321814  0.40014958  0.69648186     0.78100
O1632       O  0.91766155  0.06459267  0.69568156    -0.57900
O1633       O  0.95698937  0.11253822  0.71277486    -0.51000
C1634       C  0.92918547  0.10043207  0.69874611     0.74700
Zr1635     Zr  0.93918653  0.49880596  0.70867772     2.54700
O1636       O  0.91975030  0.49790977  0.66950469    -0.78500
O1637       O  0.86637511  0.49617842  0.71960200    -0.91900
Zr1638     Zr  0.56340780  0.50190035  0.70280311     2.64700
O1639       O  0.55102128  0.49985384  0.66281889    -0.96800
O1640       O  0.63917472  0.50145274  0.70035760    -0.78900
O1641       O  0.50312355  0.46220984  0.70604026    -0.82300
O1642       O  0.50272453  0.03738932  0.70478374    -2.17000
O1643       O  0.91217730  0.06040027  0.77539441    -0.65600
O1644       O  0.94754170  0.11114003  0.75918012    -0.50200
C1645       C  0.91669511  0.09673806  0.77013390     0.73100
O1646       O  0.60584670  0.44291033  0.77560886    -0.58600
O1647       O  0.56619234  0.39302968  0.76055464    -0.50500
C1648       C  0.59826767  0.40642400  0.77141564     0.74900
O1649       O  0.59368429  0.06577218  0.77900192    -0.69900
O1650       O  0.55253920  0.11261581  0.76245667    -0.48600
C1651       C  0.58309087  0.10164514  0.77521119     0.76300
O1652       O  0.92555891  0.43499133  0.78227741    -0.65300
O1653       O  0.96015435  0.38659836  0.76396720    -0.52500
C1654       C  0.93204161  0.39881659  0.77744661     0.74700
Zr1655     Zr  0.95270461  0.49986309  0.77372145     2.77500
O1656       O  0.97838502  0.50947379  0.81156565    -0.96000
O1657       O  0.88630904  0.49627232  0.79275111    -0.76800
Zr1658     Zr  0.57444063  0.50664241  0.76807899     2.70100
O1659       O  0.57530281  0.50658269  0.80843510    -0.78100
O1660       O  0.65046618  0.50935092  0.76743132    -0.97200
Zr1661     Zr  0.51004936  0.42536207  0.73960618     2.21500
Zr1662     Zr  0.50473171  0.07548497  0.73805167     2.11100
O1663       O  0.50910964  0.03745374  0.77141295    -2.45900
O1664       O  0.51533160  0.46456660  0.77241040    -0.77900
O1665       O  0.94145115  0.03755002  0.74126552    -0.70100
O1666       O  0.57067830  0.46619953  0.73608861    -2.31000
O1667       O  0.94486057  0.46051222  0.74133593    -2.27200
O1668       O  0.56810598  0.03906697  0.73703264    -0.71800
H1669       H  0.50196802  0.05376493  0.69172142     0.80200
H1670       H  0.59571016  0.45063011  0.73480499     0.81200
H1671       H  0.50961237  0.05437682  0.78427872     0.83500
H1672       H  0.92047829  0.44382125  0.74175493     0.81100
H1673       H  0.64895562  0.51864040  0.71266123     0.44100
H1674       H  0.65712431  0.53006424  0.75644396     0.43100
H1675       H  0.56356560  0.53242018  0.81259123     0.42800
H1676       H  0.96029501  0.03191872  0.81683916     0.40700
H1677       H  0.86494479  0.49414222  0.78073691     0.43800
H1678       H  0.85232383  0.47999196  0.70800781     0.38600
H1679       H  0.94602718  0.49165514  0.66187049     0.44700
H1680       H  0.53654625  0.52476571  0.65907591     0.41100
H1681       H  0.97815519  0.48275077  0.81817624     0.46100
H1682       H  0.85586873  0.52321174  0.71701081     0.44800
H1683       H  0.57906608  0.50285213  0.65635097     0.44900
H1684       H  0.65899482  0.52078462  0.78192048     0.45300
N1685       N  0.75569855  0.09325400  0.13812721    -0.34900
N1686       N  0.68553830  0.10642157  0.10738289    -0.55500
N1687       N  0.74230755  0.12350159  0.07207852    -0.34900
N1688       N  0.81294594  0.11336323  0.10334308    -0.55500
C1689       C  0.72357268  0.09480906  0.15236954     0.28700
C1690       C  0.79165358  0.09685118  0.15013822     0.28700
C1691       C  0.70583426  0.13590918  0.06277451     0.28700
C1692       C  0.77371932  0.13912889  0.06012585     0.28700
C1693       C  0.66515139  0.09054330  0.12462221     0.37300
C1694       C  0.65802152  0.10665949  0.09018919     0.37300
C1695       C  0.84039653  0.09876402  0.11859226     0.37300
C1696       C  0.83330285  0.11537752  0.08388978     0.37300
C1697       C  0.73926804  0.09909218  0.17381615    -0.20200
C1698       C  0.78227038  0.10026317  0.17241507    -0.20200
C1699       C  0.71432150  0.15960400  0.04466517    -0.20200
C1700       C  0.75667825  0.16025133  0.04243453    -0.20200
C1701       C  0.62464171  0.08028634  0.11826787    -0.21300
C1702       C  0.62014207  0.09056995  0.09641860    -0.21200
C1703       C  0.87840359  0.09166699  0.10884691    -0.21300
C1704       C  0.87403949  0.10230090  0.08695250    -0.21200
C1705       C  0.68087407  0.08952569  0.14652870    -0.16600
C1706       C  0.83243147  0.09441997  0.14147609    -0.16600
C1707       C  0.81696267  0.13245457  0.06406213    -0.16600
C1708       C  0.66524646  0.12504336  0.06972794    -0.16600
H1709       H  0.72161429  0.10052420  0.18892864     0.16300
H1710       H  0.80411216  0.10290712  0.18623173     0.16300
H1711       H  0.69272203  0.17489259  0.03378191     0.16300
H1712       H  0.77202819  0.17435526  0.02875875     0.16300
H1713       H  0.60046910  0.06767262  0.12845509     0.14600
H1714       H  0.59196643  0.08737296  0.08639429     0.14600
H1715       H  0.90651481  0.08042713  0.11674233     0.14600
H1716       H  0.89847466  0.10085835  0.07483949     0.14600
H1717       H  0.75332710  0.08545860  0.12151071     0.27900
H1718       H  0.74570793  0.10242794  0.08447446     0.27900
N1719       N  0.75073944  0.39716905  0.13768270    -0.34900
N1720       N  0.81509761  0.38182690  0.10469243    -0.55500
N1721       N  0.75077492  0.35893858  0.07281191    -0.34900
N1722       N  0.68596375  0.37879340  0.10498972    -0.55500
C1723       C  0.78510065  0.41064064  0.14877004     0.28700
C1724       C  0.71665398  0.40867816  0.14899423     0.28700
C1725       C  0.78441361  0.36326539  0.05957661     0.28700
C1726       C  0.71608724  0.36154613  0.05970337     0.28700
C1727       C  0.83955391  0.38571670  0.12305664     0.37300
C1728       C  0.83953961  0.36632602  0.08887166     0.37300
C1729       C  0.66173595  0.38193710  0.12309450     0.37300
C1730       C  0.66170708  0.36260657  0.08878521     0.37300
C1731       C  0.77271549  0.43082776  0.16752254    -0.20200
C1732       C  0.72961401  0.42958844  0.16766240    -0.20200
C1733       C  0.77077750  0.36936538  0.03791994    -0.20200
C1734       C  0.72776982  0.36807778  0.03798239    -0.20200
C1735       C  0.87968396  0.37291356  0.11881777    -0.21300
C1736       C  0.87959487  0.36034317  0.09727437    -0.21200
C1737       C  0.62177769  0.36816721  0.11825350    -0.21300
C1738       C  0.62179681  0.35572414  0.09661941    -0.21200
C1739       C  0.82718734  0.40273112  0.14323834    -0.16600
C1740       C  0.67447445  0.39872848  0.14362348    -0.16600
C1741       C  0.67427116  0.35622173  0.06666870    -0.16600
C1742       C  0.82697565  0.36027526  0.06654425    -0.16600
H1743       H  0.79266091  0.44440733  0.18004598     0.16300
H1744       H  0.71009966  0.44211873  0.18028371     0.16300
H1745       H  0.78977706  0.37444906  0.02352640     0.16300
H1746       H  0.70738583  0.37179428  0.02364844     0.16300
H1747       H  0.90637772  0.37267793  0.13006792     0.14600
H1748       H  0.90623294  0.34841144  0.08884070     0.14600
H1749       H  0.59530985  0.36718972  0.12916361     0.14600
H1750       H  0.59523264  0.34326699  0.08772050     0.14600
H1751       H  0.75084734  0.37770336  0.12446348     0.27900
H1752       H  0.75139460  0.35021409  0.08936201     0.27900
C1753       C  0.60870560  0.13092826  0.78622167    -0.11600
C1754       C  0.63578475  0.14830447  0.79654569    -0.13100
C1755       C  0.88353334  0.12151623  0.77744208    -0.11600
C1756       C  0.85341123  0.13230970  0.78750981    -0.13100
C1757       C  0.65723954  0.36105726  0.78809967    -0.11600
C1758       C  0.62921265  0.37922094  0.77934124    -0.13100
C1759       C  0.87437471  0.35854273  0.79817792    -0.11600
C1760       C  0.90348238  0.37154944  0.78775542    -0.13100
C1761       C  0.62776354  0.13802863  0.05677097    -0.14700
C1762       C  0.62452532  0.13496333  0.03469454    -0.29900
H1763       H  0.60316818  0.15278497  0.06573302     0.14300
H1764       H  0.64891507  0.12059399  0.02544063     0.14900
C1765       C  0.84727143  0.14327314  0.04661786    -0.14700
C1766       C  0.84970574  0.17959173  0.03771970    -0.29900
H1767       H  0.86989344  0.12125995  0.04183309     0.14300
H1768       H  0.82864881  0.20280722  0.04266658     0.14900
C1769       C  0.64107020  0.34492005  0.05006480    -0.14700
C1770       C  0.64538345  0.31429801  0.03610966    -0.29900
H1771       H  0.61103791  0.35950178  0.05093874     0.14300
H1772       H  0.67504449  0.29894114  0.03567119     0.14900
C1773       C  0.85664836  0.32524564  0.03392178    -0.14700
C1774       C  0.86082351  0.35214799  0.05016152    -0.29900
H1775       H  0.82662505  0.31073954  0.03133895     0.14300
H1776       H  0.89122719  0.36588304  0.05279065     0.14900
C1777       C  0.63860766  0.24694149  0.92182892    -0.14700
C1778       C  0.66580681  0.21985665  0.92960628    -0.29900
H1779       H  0.62581215  0.24314938  0.90517181     0.14300
H1780       H  0.67830672  0.22283881  0.94637602     0.14900
C1781       C  0.84341368  0.31280016  0.90949640    -0.14700
C1782       C  0.87306329  0.33292790  0.92058733    -0.29900
H1783       H  0.83681885  0.28223781  0.91371204     0.14300
H1784       H  0.88015062  0.36310851  0.91577568     0.14900
C1785       C  0.63476329  0.15275143  0.92760615    -0.14700
C1786       C  0.66399904  0.17900155  0.92081555    -0.29900
H1787       H  0.63263601  0.12423238  0.91950675     0.14300
H1788       H  0.68589105  0.17043441  0.90823293     0.14900
C1789       C  0.85060434  0.17912302  0.92072456    -0.14700
C1790       C  0.85943594  0.16360418  0.90084041    -0.29900
H1791       H  0.81950012  0.19028680  0.92383850     0.14300
H1792       H  0.89050558  0.15231982  0.89802949     0.14900
C1793       C  0.88927289  0.41992075  0.17153519    -0.11600
C1794       C  0.86035912  0.41245475  0.15908267    -0.13100
C1795       C  0.64216403  0.40673392  0.15988025    -0.11600
C1796       C  0.61507187  0.41443631  0.17302304    -0.13100
C1797       C  0.89591108  0.07914815  0.16968926    -0.11600
C1798       C  0.86764705  0.08698210  0.15672386    -0.13100
C1799       C  0.65056972  0.08345749  0.16368951    -0.11600
C1800       C  0.62233780  0.07681712  0.17609737    -0.13100
C1801       C  0.61170835  0.15378516  0.67229104    -0.11600
C1802       C  0.59521671  0.13217609  0.68534221    -0.13100
C1803       C  0.60620215  0.34759417  0.67012027    -0.11600
C1804       C  0.59109847  0.37040113  0.68291319    -0.13100
C1805       C  0.89869926  0.15024168  0.66987784    -0.11600
C1806       C  0.91131801  0.12846164  0.68404379    -0.13100
C1807       C  0.90600987  0.34482784  0.67049934    -0.11600
C1808       C  0.91963342  0.36787381  0.68396678    -0.13100
C1809       C  0.84850599  0.10902267  0.56032761    -0.14700
C1810       C  0.85619389  0.14720871  0.55629114    -0.29900
H1811       H  0.85059028  0.09710354  0.57698534     0.14300
H1812       H  0.85353865  0.15744870  0.53925637     0.14900
C1813       C  0.84037823  0.38551347  0.56329415    -0.14700
C1814       C  0.85280813  0.34902175  0.55834087    -0.29900
H1815       H  0.83961234  0.39564925  0.58033976     0.14300
H1816       H  0.85324858  0.34022683  0.54102721     0.14900
C1817       C  0.68011753  0.11024660  0.56325203    -0.14700
C1818       C  0.67062985  0.14827814  0.56000854    -0.29900
H1819       H  0.68099873  0.09774416  0.57980269     0.14300
H1820       H  0.67040935  0.15928154  0.54307615     0.14900
C1821       C  0.67896602  0.38538297  0.56359281    -0.14700
C1822       C  0.66656095  0.34841008  0.55927764    -0.29900
H1823       H  0.68030328  0.39630405  0.58049651     0.14300
H1824       H  0.66573984  0.33838816  0.54216716     0.14900
C1825       C  0.56583189  0.14257688  0.33005197    -0.11600
C1826       C  0.56313383  0.11272765  0.31891343    -0.13100
C1827       C  0.56294992  0.38223814  0.31849589    -0.11600
C1828       C  0.56588653  0.35280908  0.32984935    -0.13100
C1829       C  0.66134180  0.14495911  0.42982743    -0.14700
C1830       C  0.67105403  0.14704323  0.45161934    -0.29900
H1831       H  0.66541040  0.11709765  0.42126779     0.14300
H1832       H  0.66760744  0.17437485  0.46072977     0.14900
C1833       C  0.66939805  0.35216261  0.42771372    -0.14700
C1834       C  0.67619267  0.35038958  0.44975631    -0.29900
H1835       H  0.67607726  0.37950503  0.41899731     0.14300
H1836       H  0.66977106  0.32350572  0.45891286     0.14900
C1837       C  0.93576042  0.11266361  0.31672094    -0.11600
C1838       C  0.92879990  0.14158458  0.32807499    -0.13100
C1839       C  0.93012940  0.38109873  0.31663469    -0.11600
C1840       C  0.92310984  0.35146924  0.32733362    -0.13100
C1841       C  0.84600073  0.14787457  0.45331110    -0.14700
C1842       C  0.87680508  0.14524372  0.43848196    -0.29900
H1843       H  0.82977146  0.17561840  0.45542016     0.14300
H1844       H  0.89235311  0.11714199  0.43644266     0.14900
C1845       C  0.86771634  0.35120851  0.43571339    -0.14700
C1846       C  0.83804701  0.34815846  0.45115107    -0.29900
H1847       H  0.88224295  0.37974779  0.43278528     0.14300
H1848       H  0.82283074  0.31996522  0.45411796     0.14900
N1849       N  0.92750193  0.74706414  0.34631035    -0.34900
N1850       N  0.90068242  0.68696496  0.37788717    -0.55500
N1851       N  0.87701255  0.74795205  0.40892989    -0.34900
N1852       N  0.89903027  0.80793052  0.37721664    -0.55500
C1853       C  0.92744186  0.71424324  0.33335685     0.28700
C1854       C  0.92621014  0.77933786  0.33291586     0.28700
C1855       C  0.85819575  0.71573781  0.41752987     0.28700
C1856       C  0.85753312  0.77985918  0.41720356     0.28700
C1857       C  0.92304553  0.66491678  0.36377210     0.37300
C1858       C  0.89674590  0.66546097  0.39665537     0.37300
C1859       C  0.92065145  0.82990471  0.36261579     0.37300
C1860       C  0.89475949  0.83034226  0.39558236     0.37300
C1861       C  0.92730995  0.72589639  0.31130024    -0.20200
C1862       C  0.92653031  0.76686151  0.31102147    -0.20200
C1863       C  0.82620530  0.72727614  0.43128227    -0.20200
C1864       C  0.82578771  0.76776037  0.43107256    -0.20200
C1865       C  0.93387326  0.62946370  0.37371712    -0.21300
C1866       C  0.91767104  0.63002745  0.39466432    -0.21200
C1867       C  0.93067596  0.86625155  0.37184500    -0.21300
C1868       C  0.91486269  0.86627091  0.39286865    -0.21200
C1869       C  0.92921486  0.67447160  0.34127468    -0.16600
C1870       C  0.92668359  0.81943064  0.34027316    -0.16600
C1871       C  0.86977035  0.81943167  0.41375098    -0.16600
C1872       C  0.87134751  0.67649005  0.41457196    -0.16600
H1873       H  0.92782489  0.70690133  0.29691226     0.16300
H1874       H  0.92636582  0.78532173  0.29637425     0.16300
H1875       H  0.80543406  0.70854054  0.44064144     0.16300
H1876       H  0.80460631  0.78612601  0.44021448     0.16300
H1877       H  0.95127524  0.60554978  0.36652551     0.14600
H1878       H  0.92051504  0.60672639  0.40685051     0.14600
H1879       H  0.94730611  0.89037893  0.36413223     0.14600
H1880       H  0.91746393  0.89026596  0.40460819     0.14600
H1881       H  0.93160003  0.74753792  0.36344508     0.27900
H1882       H  0.90471195  0.74817507  0.40013292     0.27900
N1883       N  0.62131614  0.68689280  0.37498374    -0.34900
N1884       N  0.59338908  0.74718918  0.34344586    -0.55500
N1885       N  0.62188993  0.80778918  0.37452391    -0.34900
N1886       N  0.65246456  0.74750403  0.40452551    -0.55500
C1887       C  0.61487234  0.66523057  0.35643791     0.28700
C1888       C  0.64641019  0.66555793  0.38870904     0.28700
C1889       C  0.61616439  0.82900637  0.35576589     0.28700
C1890       C  0.64805924  0.82890412  0.38782898     0.28700
C1891       C  0.57602002  0.71480064  0.33370993     0.37300
C1892       C  0.57623811  0.77941992  0.33358545     0.37300
C1893       C  0.65740967  0.71591315  0.41788576     0.37300
C1894       C  0.65793252  0.77943837  0.41755714     0.37300
C1895       C  0.63610627  0.62979255  0.35841338    -0.20200
C1896       C  0.65624942  0.63015532  0.37867599    -0.20200
C1897       C  0.63896816  0.86388380  0.35715795    -0.20200
C1898       C  0.65944903  0.86360979  0.37730372    -0.20200
C1899       C  0.54781785  0.72657396  0.31732208    -0.21300
C1900       C  0.54793065  0.76745209  0.31726064    -0.21200
C1901       C  0.66557064  0.72780139  0.43951963    -0.21300
C1902       C  0.66593649  0.76813447  0.43930976    -0.21200
C1903       C  0.58779929  0.67515585  0.33858981    -0.16600
C1904       C  0.65928556  0.67678170  0.41035917    -0.16600
C1905       C  0.66023416  0.81834354  0.40961484    -0.16600
C1906       C  0.58857500  0.81907122  0.33818264    -0.16600
H1907       H  0.63701054  0.60601556  0.34649244     0.16300
H1908       H  0.67584944  0.60685451  0.38519850     0.16300
H1909       H  0.64078309  0.88712919  0.34489629     0.16300
H1910       H  0.68028481  0.88649046  0.38344306     0.16300
H1911       H  0.52948630  0.70771559  0.30639571     0.14600
H1912       H  0.52976004  0.78617734  0.30626960     0.14600
H1913       H  0.67160532  0.70938431  0.45387364     0.14600
H1914       H  0.67231562  0.78691040  0.45347304     0.14600
H1915       H  0.60566598  0.71264035  0.37900049     0.27900
H1916       H  0.60512830  0.78267639  0.37897418     0.27900
O1917       O  0.67488859  0.94806601  0.44166213    -0.73600
O1918       O  0.71066042  0.89689738  0.45744947    -0.52500
C1919       C  0.68452755  0.91141864  0.44331152     0.80100
O1920       O  0.83120563  0.54724698  0.43998102    -0.58200
O1921       O  0.80404947  0.59967978  0.45843933    -0.51200
C1922       C  0.82519692  0.58434652  0.44268409     0.72100
O1923       O  0.83192136  0.94896165  0.43954571    -0.72800
O1924       O  0.80125332  0.89646147  0.45676862    -0.53300
C1925       C  0.82401189  0.91188528  0.44158744     0.78100
O1926       O  0.67360858  0.54890991  0.44473237    -0.57900
O1927       O  0.71222613  0.59983586  0.45916132    -0.51000
C1928       C  0.68452596  0.58538413  0.44568972     0.74700
Zr1929     Zr  0.69411854  0.00899875  0.46070571     2.54700
O1930       O  0.68708442  0.02090292  0.42102248    -0.78500
O1931       O  0.61887475  0.48267047  0.47223637    -0.91900
Zr1932     Zr  0.81843823  0.00919215  0.46036245     2.64700
O1933       O  0.81497492  0.02457118  0.42088162    -0.96800
O1934       O  0.89314895  0.48914684  0.46365346    -0.78900
O1935       O  0.75595902  0.97189981  0.45642475    -0.82300
O1936       O  0.75506487  0.52428438  0.45778424    -2.17000
O1937       O  0.68388090  0.57782792  0.53368667    -0.65600
O1938       O  0.71882010  0.61689121  0.50929246    -0.50200
C1939       C  0.69430148  0.61170685  0.52575962     0.73100
O1940       O  0.83641464  0.91716535  0.53053122    -0.58600
O1941       O  0.80008584  0.87798828  0.50627079    -0.50500
C1942       C  0.82595683  0.88322770  0.52255061     0.74900
O1943       O  0.84222444  0.57642635  0.53080746    -0.69900
O1944       O  0.80483889  0.61619182  0.50736700    -0.48600
C1945       C  0.83137465  0.61048491  0.52322441     0.76300
O1946       O  0.68348951  0.91901189  0.53228061    -0.65300
O1947       O  0.71589889  0.87942903  0.50743972    -0.52500
C1948       C  0.69280825  0.88508368  0.52432114     0.74700
Zr1949     Zr  0.70041247  0.50852309  0.52774525     2.77500
O1950       O  0.67540323  0.97251220  0.56236484    -0.96000
O1951       O  0.62098793  0.99089785  0.51530050    -0.76800
Zr1952     Zr  0.82499299  0.50694108  0.52470832     2.70100
O1953       O  0.84722071  0.52186868  0.56259076    -0.78100
O1954       O  0.89592371  0.98616803  0.52156427    -0.97200
Zr1955     Zr  0.75715194  0.92395371  0.48520844     2.21500
Zr1956     Zr  0.75933425  0.57200888  0.48675182     2.11100
O1957       O  0.76302514  0.54470430  0.52314197    -2.45900
O1958       O  0.75720492  0.95066578  0.52151226    -0.77900
O1959       O  0.69551679  0.53677275  0.49178661    -0.70100
O1960       O  0.82077080  0.96011546  0.48851960    -2.31000
O1961       O  0.69365411  0.95998008  0.48873303    -2.27200
O1962       O  0.82271145  0.53546655  0.48882602    -0.71800
H1963       H  0.75345596  0.53658259  0.44337240     0.80200
H1964       H  0.84454119  0.94323692  0.48674045     0.81200
H1965       H  0.76441563  0.56493510  0.53436257     0.83500
H1966       H  0.66944765  0.94290671  0.48704680     0.81100
H1967       H  0.90124872  0.97903945  0.46429293     0.44100
H1968       H  0.90607572  0.52007457  0.50730228     0.43100
H1969       H  0.79615958  0.95701509  0.56679107     0.42800
H1970       H  0.72755073  0.53829774  0.56991739     0.40700
H1971       H  0.61638075  0.50849514  0.54237990     0.43800
H1972       H  0.60781476  0.01757809  0.44983995     0.38600
H1973       H  0.71354793  0.03409830  0.41696986     0.44700
H1974       H  0.79959475  0.48726908  0.41403495     0.41100
H1975       H  0.67859092  0.53816002  0.57050220     0.46100
H1976       H  0.61332133  0.03311260  0.47412964     0.44800
H1977       H  0.84427955  0.02974796  0.41674696     0.44900
H1978       H  0.91320137  0.50193343  0.53092474     0.45300
N1979       N  0.89822673  0.68800332  0.60695565    -0.34900
N1980       N  0.91200780  0.74899157  0.63963549    -0.55500
N1981       N  0.90269682  0.80888196  0.60543253    -0.34900
N1982       N  0.88385064  0.74767912  0.57278198    -0.55500
C1983       C  0.89394575  0.66685543  0.62586605     0.28700
C1984       C  0.88246000  0.66588193  0.59014828     0.28700
C1985       C  0.90072303  0.83091828  0.62411151     0.28700
C1986       C  0.88493549  0.83013811  0.58878147     0.28700
C1987       C  0.91990145  0.71733585  0.65255744     0.37300
C1988       C  0.92408994  0.78075459  0.65156623     0.37300
C1989       C  0.88856412  0.71544666  0.55993156     0.37300
C1990       C  0.88752996  0.77935978  0.55929524     0.37300
C1991       C  0.87550805  0.63075539  0.62101542    -0.20200
C1992       C  0.86807421  0.63016844  0.59849257    -0.20200
C1993       C  0.88214489  0.86673189  0.61924670    -0.20200
C1994       C  0.87188134  0.86615725  0.59702068    -0.20200
C1995       C  0.93697742  0.72901544  0.67279600    -0.21300
C1996       C  0.93975459  0.76924616  0.67214479    -0.21200
C1997       C  0.89588370  0.72676881  0.53823454    -0.21300
C1998       C  0.89491941  0.76729557  0.53780743    -0.21200
C1999       C  0.90834296  0.67846807  0.64714180    -0.16600
C2000       C  0.88309944  0.67615784  0.56739197    -0.16600
C2001       C  0.88215090  0.81879348  0.56618049    -0.16600
C2002       C  0.91608893  0.81991364  0.64531763    -0.16600
H2003       H  0.86831569  0.60722224  0.63249955     0.16300
H2004       H  0.85380401  0.60603653  0.58934355     0.16300
H2005       H  0.87605134  0.89059112  0.63061381     0.16300
H2006       H  0.85632696  0.88964030  0.58802497     0.16300
H2007       H  0.94545774  0.71061503  0.68681649     0.14600
H2008       H  0.95058921  0.78791779  0.68561908     0.14600
H2009       H  0.90117599  0.70787251  0.52413966     0.14600
H2010       H  0.89944453  0.78572222  0.52337913     0.14600
H2011       H  0.91516866  0.71401484  0.60515614     0.27900
H2012       H  0.91889810  0.78259471  0.60372591     0.27900
N2013       N  0.61536151  0.81105912  0.60562219    -0.34900
N2014       N  0.59941388  0.75203179  0.63861030    -0.55500
N2015       N  0.61891523  0.69077599  0.60713590    -0.34900
N2016       N  0.63866323  0.74977910  0.57414814    -0.55500
C2017       C  0.61475769  0.83338932  0.62418071     0.28700
C2018       C  0.63444229  0.83250109  0.58984880     0.28700
C2019       C  0.62058478  0.67059810  0.62651921     0.28700
C2020       C  0.63872119  0.66890244  0.59185559     0.28700
C2021       C  0.58455678  0.78363032  0.64928379     0.37300
C2022       C  0.58725577  0.72036473  0.65032129     0.37300
C2023       C  0.63501794  0.78125470  0.56050380     0.37300
C2024       C  0.63660290  0.71734094  0.56113323     0.37300
C2025       C  0.63342358  0.86960056  0.62017167    -0.20200
C2026       C  0.64602381  0.86902685  0.59848768    -0.20200
C2027       C  0.64143883  0.63539432  0.62352867    -0.20200
C2028       C  0.65296406  0.63432714  0.60166143    -0.20200
C2029       C  0.56250087  0.77207363  0.66780072    -0.21300
C2030       C  0.56420194  0.73178459  0.66846297    -0.21200
C2031       C  0.63022528  0.76878451  0.53874009    -0.21300
C2032       C  0.63115233  0.72827519  0.53914128    -0.21200
C2033       C  0.59559071  0.82250289  0.64412998    -0.16600
C2034       C  0.63865449  0.82094672  0.56750005    -0.16600
C2035       C  0.64189071  0.67834143  0.56905392    -0.16600
C2036       C  0.60137508  0.68208692  0.64636025    -0.16600
H2037       H  0.63725436  0.89396555  0.63161045     0.16300
H2038       H  0.66160123  0.89298019  0.59003283     0.16300
H2039       H  0.64745262  0.61270848  0.63579051     0.16300
H2040       H  0.66986275  0.61067437  0.59389438     0.16300
H2041       H  0.54808301  0.79073710  0.67999031     0.14600
H2042       H  0.55124896  0.71318024  0.68124913     0.14600
H2043       H  0.62628030  0.78690627  0.52408786     0.14600
H2044       H  0.62790315  0.70919384  0.52485830     0.14600
H2045       H  0.59937780  0.78463647  0.60301512     0.27900
H2046       H  0.60113696  0.71575237  0.60386321     0.27900
O2047       O  0.93356994  0.58338924  0.27977664    -0.73600
O2048       O  0.96505742  0.54716145  0.30743466    -0.52500
C2049       C  0.94518361  0.57797065  0.30011569     0.80100
O2050       O  0.91375378  0.93286465  0.20603512    -0.58200
O2051       O  0.95367606  0.96455884  0.18027399    -0.51200
C2052       C  0.92217396  0.94320796  0.18614052     0.72100
O2053       O  0.93100026  0.91043173  0.27842871    -0.72800
O2054       O  0.96262240  0.94585606  0.30641956    -0.53300
C2055       C  0.94219455  0.91544161  0.29883943     0.78100
O2056       O  0.91636447  0.56405267  0.20600616    -0.57900
O2057       O  0.95586984  0.53196539  0.18047324    -0.51000
C2058       C  0.92522562  0.55425301  0.18598533     0.74700
Zr2059     Zr  0.94250105  0.55083890  0.24381615     2.54700
O2060       O  0.86747505  0.54474912  0.24902675    -0.78500
O2061       O  0.94195399  0.62197144  0.23823617    -0.91900
Zr2062     Zr  0.94103316  0.94462253  0.24313270     2.64700
O2063       O  0.86708851  0.95663351  0.24873198    -0.96800
O2064       O  0.93087622  0.87427346  0.23706365    -0.78900
O2065       O  0.93999624  0.49346336  0.26693880    -0.82300
O2066       O  0.94210890  0.49242633  0.22298834    -2.17000
O2067       O  0.59619991  0.56094876  0.20927395    -0.65600
O2068       O  0.55811274  0.52993506  0.18186496    -0.50200
C2069       C  0.58954894  0.55046903  0.18909194     0.73100
O2070       O  0.57068774  0.90988538  0.27929803    -0.58600
O2071       O  0.53811911  0.94517580  0.30634845    -0.50500
C2072       C  0.55878013  0.91497802  0.29932093     0.74900
O2073       O  0.59187493  0.93109390  0.20682547    -0.69900
O2074       O  0.55486988  0.96479737  0.18019101    -0.48600
C2075       C  0.58495976  0.94216354  0.18667398     0.76300
O2076       O  0.57166545  0.58287616  0.28044373    -0.65300
O2077       O  0.53640811  0.54827237  0.30697995    -0.52500
C2078       C  0.55822514  0.57826165  0.30022705     0.74700
Zr2079     Zr  0.56407125  0.54981304  0.24481998     2.77500
O2080       O  0.63838959  0.54134064  0.25251241    -0.96000
O2081       O  0.56941791  0.62064240  0.23902593    -0.76800
Zr2082     Zr  0.56281497  0.94257934  0.24355344     2.70100
O2083       O  0.63781837  0.94859920  0.24994686    -0.78100
O2084       O  0.56531489  0.87126862  0.23907665    -0.97200
Zr2085     Zr  0.49740744  0.49504657  0.28715241     2.21500
Zr2086     Zr  0.50401778  0.49141624  0.20027790     2.11100
O2087       O  0.56439023  0.49140888  0.22395139    -2.45900
O2088       O  0.56283708  0.49299340  0.26816493    -0.77900
O2089       O  0.50377794  0.55171542  0.22082065    -0.70100
O2090       O  0.49941122  0.94306270  0.26250094    -2.31000
O2091       O  0.50016035  0.55084610  0.26311145    -2.27200
O2092       O  0.50200534  0.94362552  0.21999694    -0.71800
H2093       H  0.91721183  0.49283864  0.21375734     0.80200
H2094       H  0.49861725  0.91833545  0.27026396     0.81200
H2095       H  0.59004799  0.49042987  0.21583904     0.83500
H2096       H  0.49992137  0.57548054  0.27097763     0.81100
H2097       H  0.95364742  0.86677711  0.22703512     0.44100
H2098       H  0.54603578  0.86556713  0.22647644     0.43100
H2099       H  0.64836984  0.92136050  0.24852251     0.42800
H2100       H  0.65060462  0.56797290  0.25050496     0.40700
H2101       H  0.54337498  0.63130278  0.24521811     0.43800
H2102       H  0.96469103  0.63214561  0.24802881     0.38600
H2103       H  0.85627216  0.53508633  0.23462001     0.44700
H2104       H  0.85831048  0.97312299  0.23594079     0.41100
H2105       H  0.64051446  0.53641839  0.26866695     0.46100
H2106       H  0.91593828  0.63102892  0.24519404     0.44800
H2107       H  0.85347012  0.93078061  0.24596927     0.44900
H2108       H  0.59348544  0.86592980  0.23330480     0.45300
O2109       O  0.93713661  0.82351339  0.93345049    -0.73600
O2110       O  0.88325537  0.79350494  0.95132301    -0.52500
C2111       C  0.89824767  0.81665450  0.93637742     0.80100
O2112       O  0.55945357  0.66147520  0.93847373    -0.58200
O2113       O  0.61077100  0.68998167  0.95993004    -0.51200
C2114       C  0.59805923  0.66954390  0.94318309     0.72100
O2115       O  0.92013587  0.68212100  0.93377057    -0.72800
O2116       O  0.87250358  0.71401999  0.95466002    -0.53300
C2117       C  0.88278120  0.69334953  0.93780628     0.78100
O2118       O  0.57558677  0.79067510  0.93107513    -0.57900
O2119       O  0.61901238  0.77215475  0.95899268    -0.51000
C2120       C  0.61023764  0.77599410  0.93828619     0.74700
Zr2121     Zr  0.50773427  0.79881144  0.94901359     2.54700
O2122       O  0.51108948  0.82534034  0.91153503    -0.78500
O2123       O  0.52420025  0.86670312  0.95897289    -0.91900
Zr2124     Zr  0.49040366  0.68089250  0.95245842     2.64700
O2125       O  0.98143069  0.65824318  0.91387570    -0.96800
O2126       O  0.47833292  0.61321008  0.96433800    -0.82500
O2127       O  0.96312056  0.74643520  0.95285553    -0.82300
O2128       O  0.53649198  0.73477310  0.95066209    -2.17000
O2129       O  0.57444792  0.81671330  0.02649007    -0.65600
O2130       O  0.61932664  0.77401889  0.00999259    -0.50200
C2131       C  0.61114683  0.80219437  0.02350956     0.73100
O2132       O  0.92013986  0.68432560  0.03063318    -0.58600
O2133       O  0.87485203  0.72018666  0.00910546    -0.50500
C2134       C  0.88379971  0.69781328  0.02580545     0.74900
O2135       O  0.55700000  0.66146594  0.03005864    -0.69900
O2136       O  0.60887837  0.68617564  0.00845440    -0.48600
C2137       C  0.59540374  0.66417642  0.02416146     0.76300
O2138       O  0.92904939  0.82309226  0.02689601    -0.65300
O2139       O  0.87902387  0.79635969  0.00393896    -0.52500
C2140       C  0.89058711  0.81679533  0.02083808     0.74700
Zr2141     Zr  0.50200773  0.80566450  0.01368441     2.77500
O2142       O  0.50085251  0.81350128  0.05382388    -0.96000
O2143       O  0.50706708  0.87658278  0.00798356    -0.76800
Zr2144     Zr  0.49004771  0.68805826  0.01696527     2.70100
O2145       O  0.49270270  0.69209399  0.05725346    -0.78100
O2146       O  0.47519685  0.61756003  0.01667314    -0.97200
Zr2147     Zr  0.91572902  0.75218667  0.98015412     2.21500
Zr2148     Zr  0.57648908  0.73482642  0.98454955     2.11100
O2149       O  0.53552289  0.74311687  0.01676099    -2.45900
O2150       O  0.95531966  0.75134982  0.01385234    -0.77900
O2151       O  0.54669804  0.79929503  0.98258672    -0.70100
O2152       O  0.94656295  0.68827198  0.98322437    -2.31000
O2153       O  0.95948823  0.80967471  0.97982203    -2.27200
O2154       O  0.53156274  0.67848712  0.98541873    -0.71800
H2155       H  0.55111029  0.72947956  0.93709964     0.80200
H2156       H  0.92581138  0.66766529  0.98364610     0.81200
H2157       H  0.55276665  0.74224031  0.03002924     0.83500
H2158       H  0.94336484  0.83357417  0.97886080     0.81100
H2159       H  0.95667880  0.60558789  0.95562605     0.44100
H2160       H  0.50254174  0.60493994  0.01428190     0.43100
H2161       H  0.00837205  0.71173400  0.06069081     0.42800
H2162       H  0.51899032  0.79225183  0.05971503     0.40700
H2163       H  0.52483583  0.88616715  0.02046212     0.43800
H2164       H  0.99859856  0.88533683  0.95425173     0.38600
H2165       H  0.99630826  0.80131785  0.90155967     0.44700
H2166       H  0.50295240  0.67123226  0.90590766     0.41100
H2167       H  0.51667651  0.83813300  0.05686172     0.46100
H2168       H  0.55467396  0.86915219  0.95677307     0.44800
H2169       H  0.49570265  0.62867112  0.91543766     0.44900
H2170       H  0.46839767  0.61113214  0.03221742     0.45300
N2171       N  0.69238043  0.80296133  0.83382627    -0.34900
N2172       N  0.76071978  0.83973990  0.81075958    -0.55500
N2173       N  0.81532179  0.85035098  0.85073350    -0.34900
N2174       N  0.74143576  0.81803518  0.90014361    -0.55500
C2175       C  0.67338739  0.82953957  0.82070560     0.28700
C2176       C  0.67477381  0.80597896  0.85378415     0.28700
C2177       C  0.84421900  0.84829858  0.83454809     0.28700
C2178       C  0.83567002  0.84453852  0.87045360     0.28700
C2179       C  0.73004018  0.84164050  0.79497971     0.37300
C2180       C  0.79697276  0.84837355  0.80063417     0.37300
C2181       C  0.70284094  0.81522162  0.88917531     0.37300
C2182       C  0.77240518  0.84321969  0.89264654     0.37300
C2183       C  0.64175337  0.84827215  0.83201277    -0.20200
C2184       C  0.64384320  0.83432747  0.85344439    -0.20200
C2185       C  0.88346061  0.84328056  0.84427475    -0.20200
C2186       C  0.87801488  0.84025807  0.86677220    -0.20200
C2187       C  0.74678468  0.85119223  0.77468925    -0.21300
C2188       C  0.78927049  0.85496162  0.77818486    -0.21200
C2189       C  0.72109653  0.80639210  0.90942748    -0.21300
C2190       C  0.75541025  0.82811984  0.91243357    -0.21200
C2191       C  0.68700768  0.83964460  0.79963484    -0.16600
C2192       C  0.69178290  0.78786655  0.87244711    -0.16600
C2193       C  0.81594522  0.83724880  0.89097974    -0.16600
C2194       C  0.83689511  0.85034169  0.81122609    -0.16600
H2195       H  0.62206411  0.87197743  0.82603549     0.16300
H2196       H  0.62566319  0.84434733  0.86728214     0.16300
H2197       H  0.91292644  0.84022757  0.83594115     0.16300
H2198       H  0.90244612  0.83407483  0.87885725     0.16300
H2199       H  0.73004945  0.85579490  0.75917089     0.14600
H2200       H  0.81178816  0.86271357  0.76570882     0.14600
H2201       H  0.70310917  0.79193148  0.92375973     0.14600
H2202       H  0.77136012  0.83309374  0.92982391     0.14600
H2203       H  0.71774576  0.78527001  0.82978442     0.27900
H2204       H  0.78321441  0.85421718  0.84866998     0.27900
N2205       N  0.76030669  0.69832746  0.87875475    -0.34900
N2206       N  0.81552807  0.65587626  0.84344533    -0.55500
N2207       N  0.74943521  0.65522234  0.81051538    -0.34900
N2208       N  0.69894664  0.69860427  0.83999068    -0.55500
C2209       C  0.80220826  0.70077673  0.88069355     0.28700
C2210       C  0.74722861  0.73511899  0.87384796     0.28700
C2211       C  0.78230906  0.64896493  0.79711107     0.28700
C2212       C  0.71495181  0.66006070  0.79758113     0.28700
C2213       C  0.83760428  0.64915709  0.86231760     0.37300
C2214       C  0.83606204  0.63848585  0.82688473     0.37300
C2215       C  0.68153862  0.72020056  0.85614474     0.37300
C2216       C  0.66783175  0.68634611  0.82624165     0.37300
C2217       C  0.81603570  0.73814251  0.87537051    -0.20200
C2218       C  0.78083429  0.75939031  0.87043058    -0.20200
C2219       C  0.76814857  0.64893402  0.77522754    -0.20200
C2220       C  0.72549212  0.65527445  0.77555105    -0.20200
C2221       C  0.87227107  0.62640867  0.85788541    -0.21300
C2222       C  0.87172716  0.62031906  0.83528226    -0.21200
C2223       C  0.63863436  0.72148670  0.85282913    -0.21300
C2224       C  0.62982127  0.69940724  0.83404869    -0.21200
C2225       C  0.82888060  0.66861998  0.88229113    -0.16600
C2226       C  0.70576750  0.74571390  0.86981926    -0.16600
C2227       C  0.67440994  0.66824482  0.80544614    -0.16600
C2228       C  0.82392417  0.64076673  0.80429412    -0.16600
H2229       H  0.84804057  0.74767811  0.87322738     0.16300
H2230       H  0.77939575  0.78764827  0.86254362     0.16300
H2231       H  0.78644197  0.64396178  0.76058747     0.16300
H2232       H  0.70479690  0.65698910  0.76121262     0.16300
H2233       H  0.89651455  0.61677064  0.86930806     0.14600
H2234       H  0.89492333  0.60436035  0.82610554     0.14600
H2235       H  0.61647571  0.73834462  0.86221713     0.14600
H2236       H  0.59939338  0.69580278  0.82620234     0.14600
H2237       H  0.74188729  0.67304402  0.88063432     0.27900
H2238       H  0.74915984  0.65255123  0.82764253     0.27900
O2239       O  0.92911182  0.93589729  0.69059129    -0.73600
O2240       O  0.96222995  0.88803299  0.71082602    -0.52500
C2241       C  0.94002006  0.90010328  0.69419016     0.80100
O2242       O  0.58154893  0.56680216  0.68937407    -0.58200
O2243       O  0.54723496  0.61400935  0.70894613    -0.51200
C2244       C  0.57166102  0.60253783  0.69353126     0.72100
O2245       O  0.57691338  0.93777925  0.68763352    -0.72800
O2246       O  0.54628906  0.88911243  0.70818186    -0.53300
C2247       C  0.56745656  0.90179032  0.69164231     0.78100
O2248       O  0.92189201  0.56325201  0.69334098    -0.57900
O2249       O  0.96128916  0.61143313  0.71030304    -0.51000
C2250       C  0.93427680  0.59911685  0.69577257     0.74700
Zr2251     Zr  0.93582555  0.99937207  0.70884606     2.54700
O2252       O  0.91003974  0.00261266  0.67069867    -0.78500
O2253       O  0.86353978  0.99363600  0.72036995    -0.91900
Zr2254     Zr  0.56514910  0.00119346  0.70418353     2.64700
O2255       O  0.56099508  0.00519973  0.66384568    -0.96800
O2256       O  0.64113355  0.99779179  0.70588425    -0.78900
O2257       O  0.50464228  0.96123777  0.70514961    -0.82300
O2258       O  0.50129836  0.53846630  0.70404109    -2.17000
O2259       O  0.91426467  0.56069028  0.77516975    -0.65600
O2260       O  0.94915274  0.61127092  0.75849957    -0.50200
C2261       C  0.91858676  0.59698241  0.76981157     0.73100
O2262       O  0.60138575  0.93473389  0.77518149    -0.58600
O2263       O  0.56377903  0.88644292  0.75721681    -0.50500
C2264       C  0.59491158  0.89888392  0.76915203     0.74900
O2265       O  0.59649154  0.57414346  0.77556834    -0.69900
O2266       O  0.55398842  0.61944286  0.75866574    -0.48600
C2267       C  0.58537558  0.60964991  0.77115536     0.76300
O2268       O  0.92430648  0.93341722  0.78230477    -0.65300
O2269       O  0.95770711  0.88577123  0.76277999    -0.52500
C2270       C  0.93051278  0.89747914  0.77687080     0.74700
Zr2271     Zr  0.94951730  0.99889503  0.77372696     2.77500
O2272       O  0.97190000  0.00623834  0.81227954    -0.96000
O2273       O  0.88063881  0.99624254  0.79017107    -0.76800
Zr2274     Zr  0.57093140  0.99937775  0.76940379     2.70100
O2275       O  0.56600464  0.99667319  0.80958441    -0.78100
O2276       O  0.64702701  0.00150224  0.77104604    -0.97200
Zr2277     Zr  0.50784591  0.92117073  0.73752662     2.21500
Zr2278     Zr  0.50532404  0.57949848  0.73620723     2.11100
O2279       O  0.51223366  0.54413025  0.77040572    -2.45900
O2280       O  0.51114948  0.95768986  0.77135031    -0.77900
O2281       O  0.94416358  0.53791109  0.74093342    -0.70100
O2282       O  0.56922850  0.96173986  0.73626448    -2.31000
O2283       O  0.94122160  0.95997284  0.74111549    -2.27200
O2284       O  0.56873670  0.54295697  0.73455270    -0.71800
H2285       H  0.49998144  0.55358934  0.69051774     0.80200
H2286       H  0.59410040  0.94611804  0.73479725     0.81200
H2287       H  0.51341428  0.56217104  0.78276848     0.83500
H2288       H  0.91691038  0.94305277  0.74147391     0.81100
H2289       H  0.64761478  0.96928903  0.70599334     0.44100
H2290       H  0.65500199  0.02360196  0.76120516     0.43100
H2291       H  0.59459654  0.99020467  0.81485150     0.42800
H2292       H  0.95556626  0.52355119  0.81903220     0.40700
H2293       H  0.86180226  0.98680196  0.77808566     0.43800
H2294       H  0.84829455  0.98387429  0.70704124     0.38600
H2295       H  0.93434734  0.01182364  0.66212645     0.44700
H2296       H  0.54776125  0.03085986  0.66043712     0.41100
H2297       H  0.95515684  0.98642250  0.82036529     0.46100
H2298       H  0.85418885  0.02124340  0.72201381     0.44800
H2299       H  0.59029433  0.00837962  0.65914352     0.44900
H2300       H  0.65421528  0.01076638  0.78619646     0.45300
N2301       N  0.75670943  0.57955463  0.13693125    -0.34900
N2302       N  0.68590830  0.59966161  0.10771796    -0.55500
N2303       N  0.74228820  0.62719549  0.07435077    -0.34900
N2304       N  0.81334269  0.61003891  0.10387532    -0.55500
C2305       C  0.72464858  0.57638784  0.15120050     0.28700
C2306       C  0.79265827  0.58099031  0.14909920     0.28700
C2307       C  0.70548024  0.64166491  0.06652960     0.28700
C2308       C  0.77329175  0.64652443  0.06378453     0.28700
C2309       C  0.66593191  0.57924117  0.12354862     0.37300
C2310       C  0.65810431  0.60415217  0.09083939     0.37300
C2311       C  0.84172272  0.59449781  0.11830518     0.37300
C2312       C  0.83394165  0.61842871  0.08501176     0.37300
C2313       C  0.74044590  0.57481476  0.17273502    -0.20200
C2314       C  0.78334538  0.57758034  0.17140974    -0.20200
C2315       C  0.71328952  0.67097323  0.05113387    -0.20200
C2316       C  0.75565173  0.67298719  0.04876816    -0.20200
C2317       C  0.62538095  0.57040797  0.11660847    -0.21300
C2318       C  0.62045139  0.58620805  0.09584456    -0.21200
C2319       C  0.88065589  0.59350858  0.10869496    -0.21300
C2320       C  0.87577682  0.60853621  0.08765678    -0.21200
C2321       C  0.68179705  0.57308452  0.14513667    -0.16600
C2322       C  0.83356633  0.58367405  0.14050839    -0.16600
C2323       C  0.81661549  0.63855069  0.06635934    -0.16600
C2324       C  0.66515673  0.62736704  0.07193101    -0.16600
H2325       H  0.72292527  0.57171094  0.18782681     0.16300
H2326       H  0.80516124  0.57719316  0.18531181     0.16300
H2327       H  0.69100786  0.68888734  0.04206362     0.16300
H2328       H  0.77058072  0.69177032  0.03683914     0.16300
H2329       H  0.60148408  0.55505324  0.12578021     0.14600
H2330       H  0.59212676  0.58531347  0.08580408     0.14600
H2331       H  0.90969293  0.58351605  0.11616480     0.14600
H2332       H  0.90063639  0.61264790  0.07594257     0.14600
H2333       H  0.75435480  0.57712177  0.11980521     0.27900
H2334       H  0.74609845  0.60232856  0.08425117     0.27900
N2335       N  0.75212539  0.90650563  0.13755650    -0.34900
N2336       N  0.81607433  0.89088480  0.10446831    -0.55500
N2337       N  0.75181936  0.86579414  0.07319970    -0.34900
N2338       N  0.68761934  0.88573869  0.10520349    -0.55500
C2339       C  0.78656281  0.92091814  0.14815252     0.28700
C2340       C  0.71811388  0.92007968  0.14817473     0.28700
C2341       C  0.78495862  0.87098777  0.05976277     0.28700
C2342       C  0.71688187  0.86660409  0.06025126     0.28700
C2343       C  0.84017933  0.89340643  0.12300204     0.37300
C2344       C  0.84013593  0.87438015  0.08883147     0.37300
C2345       C  0.66349113  0.89048545  0.12320139     0.37300
C2346       C  0.66356385  0.86729521  0.08970996     0.37300
C2347       C  0.77437381  0.94346948  0.16607027    -0.20200
C2348       C  0.73120895  0.94300395  0.16605962    -0.20200
C2349       C  0.77075964  0.87601284  0.03811508    -0.20200
C2350       C  0.72784748  0.87294925  0.03840236    -0.20200
C2351       C  0.87963380  0.87854175  0.11910290    -0.21300
C2352       C  0.87957315  0.86638935  0.09747720    -0.21200
C2353       C  0.62386447  0.87526842  0.11905717    -0.21300
C2354       C  0.62401809  0.86021865  0.09797131    -0.21200
C2355       C  0.82845890  0.91206047  0.14277100    -0.16600
C2356       C  0.67588356  0.91031757  0.14285439    -0.16600
C2357       C  0.67558552  0.86005848  0.06761060    -0.16600
C2358       C  0.82754851  0.86850255  0.06655780    -0.16600
H2359       H  0.79446300  0.95830748  0.17806386     0.16300
H2360       H  0.71173780  0.95744302  0.17804231     0.16300
H2361       H  0.78934897  0.88111551  0.02356931     0.16300
H2362       H  0.70707503  0.87531499  0.02413229     0.16300
H2363       H  0.90585196  0.87681388  0.13062126     0.14600
H2364       H  0.90566751  0.85317777  0.08915915     0.14600
H2365       H  0.59750954  0.87511153  0.13005259     0.14600
H2366       H  0.59765074  0.84629910  0.08962008     0.14600
H2367       H  0.75215806  0.88537401  0.12514596     0.27900
H2368       H  0.75309338  0.85741100  0.08980450     0.27900
C2369       C  0.61126788  0.63974319  0.78131305    -0.11600
C2370       C  0.63857432  0.65676234  0.79170013    -0.13100
C2371       C  0.88575210  0.62184119  0.77769789    -0.11600
C2372       C  0.85606151  0.63294676  0.78811508    -0.13100
C2373       C  0.65588320  0.85517803  0.78449395    -0.11600
C2374       C  0.62658266  0.87169291  0.77595230    -0.13100
C2375       C  0.87316857  0.85714907  0.79739114    -0.11600
C2376       C  0.90239298  0.86990061  0.78705819    -0.13100
C2377       C  0.62780857  0.64040382  0.05873399    -0.14700
C2378       C  0.62719556  0.64156722  0.03649552    -0.29900
H2379       H  0.60098464  0.65112027  0.06768759     0.14300
H2380       H  0.65397299  0.63108501  0.02744422     0.14900
C2381       C  0.84587140  0.65035579  0.04853197    -0.14700
C2382       C  0.85057281  0.68759820  0.04128200    -0.29900
H2383       H  0.86634733  0.62774718  0.04214926     0.14300
H2384       H  0.83223235  0.71143618  0.04796462     0.14900
C2385       C  0.64209226  0.84796854  0.05139891    -0.14700
C2386       C  0.64654762  0.81792422  0.03707278    -0.29900
H2387       H  0.61179404  0.86192088  0.05269082     0.14300
H2388       H  0.67644627  0.80308181  0.03614372     0.14900
C2389       C  0.85621102  0.83158218  0.03460485    -0.14700
C2390       C  0.86100296  0.85944889  0.05023817    -0.29900
H2391       H  0.82607308  0.81705376  0.03251201     0.14300
H2392       H  0.89155034  0.87308308  0.05256382     0.14900
C2393       C  0.63451112  0.75300332  0.92213103    -0.14700
C2394       C  0.66167822  0.72533681  0.92919793    -0.29900
H2395       H  0.62087240  0.75002406  0.90558676     0.14300
H2396       H  0.67500253  0.72750789  0.94583415     0.14900
C2397       C  0.84042002  0.81752225  0.90917942    -0.14700
C2398       C  0.86987532  0.83702860  0.92078549    -0.29900
H2399       H  0.83351029  0.78692999  0.91313411     0.14300
H2400       H  0.87729483  0.86726834  0.91624141     0.14900
C2401       C  0.62990694  0.65862609  0.92678922    -0.14700
C2402       C  0.65899962  0.68492167  0.91986869    -0.29900
H2403       H  0.62697501  0.63051000  0.91831321     0.14300
H2404       H  0.68007790  0.67679974  0.90677756     0.14900
C2405       C  0.84986227  0.68413047  0.92116142    -0.14700
C2406       C  0.85888896  0.66785516  0.90140283    -0.29900
H2407       H  0.81857878  0.69496283  0.92413513     0.14300
H2408       H  0.89008938  0.65676256  0.89879699     0.14900
C2409       C  0.89151786  0.93197644  0.16971991    -0.11600
C2410       C  0.86211875  0.92337119  0.15788407    -0.13100
C2411       C  0.64308742  0.92128455  0.15817397    -0.11600
C2412       C  0.61518278  0.93004812  0.17055416    -0.13100
C2413       C  0.89658265  0.56722905  0.16866567    -0.11600
C2414       C  0.86894447  0.57545318  0.15544971    -0.13100
C2415       C  0.65106843  0.56551185  0.16192165    -0.11600
C2416       C  0.62204994  0.55988503  0.17398117    -0.13100
C2417       C  0.59612811  0.65367420  0.66387912    -0.11600
C2418       C  0.58724740  0.63134952  0.67854489    -0.13100
C2419       C  0.58857312  0.85185160  0.66081156    -0.11600
C2420       C  0.58024053  0.87403500  0.67552076    -0.13100
C2421       C  0.91182242  0.64923167  0.66457297    -0.11600
C2422       C  0.91935367  0.62677641  0.67958485    -0.13100
C2423       C  0.92138461  0.84967802  0.66232537    -0.11600
C2424       C  0.92830953  0.87213585  0.67741718    -0.13100
C2425       C  0.84784631  0.64588313  0.53459211    -0.14700
C2426       C  0.87616023  0.64354904  0.55122577    -0.29900
H2427       H  0.83254433  0.67373391  0.53103180     0.14300
H2428       H  0.89000948  0.61516880  0.55518407     0.14900
C2429       C  0.84304791  0.84771220  0.53377190    -0.14700
C2430       C  0.87300504  0.85062332  0.54967703    -0.29900
H2431       H  0.82775712  0.81954962  0.53061318     0.14300
H2432       H  0.88727410  0.87925952  0.55285224     0.14900
C2433       C  0.67903657  0.64736368  0.53720756    -0.14700
C2434       C  0.65102910  0.64513054  0.55361287    -0.29900
H2435       H  0.69398631  0.67534426  0.53344388     0.14300
H2436       H  0.63752516  0.61656210  0.55758635     0.14900
C2437       C  0.67763883  0.85003608  0.53618316    -0.14700
C2438       C  0.64742200  0.85274193  0.55126350    -0.29900
H2439       H  0.69398525  0.82242637  0.53385831     0.14300
H2440       H  0.63208567  0.88087947  0.55368244     0.14900
C2441       C  0.57337349  0.64206464  0.32481459    -0.11600
C2442       C  0.56584225  0.61153921  0.31488433    -0.13100
C2443       C  0.56698435  0.88213643  0.31411876    -0.11600
C2444       C  0.57452748  0.85194877  0.32428103    -0.13100
C2445       C  0.67992806  0.64795370  0.42544229    -0.14700
C2446       C  0.66382589  0.61227464  0.42985352    -0.29900
H2447       H  0.70814153  0.65762841  0.43417844     0.14300
H2448       H  0.63542330  0.60241296  0.42138510     0.14900
C2449       C  0.68018154  0.84794596  0.42442296    -0.14700
C2450       C  0.66422937  0.88391281  0.42771090    -0.29900
H2451       H  0.70789871  0.83884608  0.43370108     0.14300
H2452       H  0.63638539  0.89328711  0.41865844     0.14900
C2453       C  0.93848083  0.61110684  0.31505058    -0.11600
C2454       C  0.93486218  0.64104771  0.32608408    -0.13100
C2455       C  0.93465950  0.88221549  0.31355398    -0.11600
C2456       C  0.93129315  0.85232077  0.32464367    -0.13100
C2457       C  0.84320124  0.61084911  0.42597506    -0.14700
C2458       C  0.85717308  0.64704348  0.43128410    -0.29900
H2459       H  0.84456423  0.60036980  0.40901316     0.14300
H2460       H  0.85498612  0.65672164  0.44839587     0.14900
C2461       C  0.85525379  0.84908169  0.43022655    -0.14700
C2462       C  0.84185620  0.88540242  0.42487331    -0.29900
H2463       H  0.85271264  0.83951261  0.44736104     0.14300
H2464       H  0.84346771  0.89599253  0.40792925     0.14900
loop_ 
_geom_bond_atom_site_label_1 
_geom_bond_atom_site_label_2 
_geom_bond_distance 
_geom_bond_site_symmetry_2 
_ccdc_geom_bond_type 
N1            C6   1.359       .  A
N1            C5   1.359       .  A
N1           H33   1.039       .  S
N2            C9   1.353       .  A
N2           C10   1.352       .  A
N3            C8   1.353       .  A
N3            C7   1.352       .  A
N3           H34   1.040       .  S
N4           C11   1.353       .  A
N4           C12   1.353       .  A
C5           C13   1.388       .  A
C5           C21   1.428       .  A
C6           C22   1.428       .  A
C6           C14   1.388       .  A
C7           C15   1.387       .  A
C7           C24   1.414       .  A
C8           C23   1.415       .  A
C8           C16   1.387       .  A
C9           C21   1.411       .  A
C9           C17   1.387       .  A
C10          C24   1.413       .  A
C10          C18   1.388       .  A
C11          C19   1.387       .  A
C11          C22   1.411       .  A
C12          C20   1.387       .  A
C12          C23   1.413       .  A
C13          C14   1.388       .  A
C13          H25   1.082       .  S
C14          H26   1.082       .  S
C15          C16   1.377       .  A
C15          H27   1.082       .  S
C16          H28   1.082       .  S
C17          C18   1.368       .  A
C17          H29   1.082       .  S
C18          H30   1.082       .  S
C19          C20   1.368       .  A
C19          H31   1.082       .  S
C20          H32   1.082       .  S
C21         C606   1.466       .  S
C22         C608   1.465       .  S
C23         C613   1.491       .  S
C24         C610   1.488       .  S
N35          C40   1.354       .  A
N35          C39   1.353       .  A
N35          H67   1.039       .  S
N36          C43   1.356       .  A
N36          C44   1.357       .  A
N37          C42   1.354       .  A
N37          C41   1.353       .  A
N37          H68   1.040       .  S
N38          C45   1.350       .  A
N38          C46   1.350       .  A
C39          C47   1.387       .  A
C39          C55   1.412       .  A
C40          C56   1.414       .  A
C40          C48   1.388       .  A
C41          C49   1.387       .  A
C41          C58   1.412       .  A
C42          C57   1.414       .  A
C42          C50   1.387       .  A
C43          C55   1.424       .  A
C43          C51   1.387       .  A
C44          C58   1.425       .  A
C44          C52   1.387       .  A
C45          C53   1.386       .  A
C45          C56   1.410       .  A
C46          C54   1.387       .  A
C46          C57   1.411       .  A
C47          C48   1.373       .  A
C47          H59   1.082       .  S
C48          H60   1.082       .  S
C49          C50   1.374       .  A
C49          H61   1.082       .  S
C50          H62   1.082       .  S
C51          C52   1.385       .  A
C51          H63   1.082       .  S
C52          H64   1.082       .  S
C53          C54   1.372       .  A
C53          H65   1.082       .  S
C54          H66   1.082       .  S
C55         C593   1.464       .  S
C56         C597   1.486       .  S
C57         C601   1.490       .  S
C58         C596   1.466       .  S
O69         Zr81   2.429       .  S
O69          C71   1.286       .  A
O70        Zr107   2.430       .  S
O70          C71   1.286       .  A
C71         C602   1.473       .  S
O72        Zr700   2.444       .  S
O72          C74   1.289       .  A
O73        Zr108   2.418       .  S
O73          C74   1.284       .  A
C74         C609   1.475       .  S
O75         Zr84   2.443       .  S
O75          C77   1.289       .  A
O76        Zr107   2.425       .  S
O76          C77   1.285       .  A
C77         C614   1.478       .  S
O78        Zr697   2.428       .  S
O78          C80   1.286       .  A
O79        Zr108   2.428       .  S
O79          C80   1.285       .  A
C80         C598   1.470       .  S
Zr81        O694   2.429       .  S
Zr81         O82   2.434       .  S
Zr81        O699   2.436       .  S
Zr81         O87   2.366       .  S
Zr81        O113   2.369       .  S
Zr81        O704   2.366       .  S
Zr81        O727   2.374       .  S
O82         H125   0.991       .  S
O83        Zr697   2.436       .  S
O83         H740   0.990       .  S
O83         H744   0.990   1_545  S
Zr84        O688   2.425       .  S
Zr84         O85   2.439       .  S
Zr84        O702   2.433       .  S
Zr84         O87   2.360       .  S
Zr84        O112   2.371       .  S
Zr84        O704   2.375       .  S
Zr84        O730   2.383       .  S
O85         H129   0.990       .  S
O85         H742   0.990       .  S
O86        Zr700   2.436       .  S
O86         H735   0.990   1_545  S
O87        Zr107   2.367       .  S
O88        Zr108   2.380       .  S
O88        Zr697   2.368       .  S
O88        Zr700   2.364       .  S
O88         H115   0.965       .  S
O89        Zr101   2.442   1_545  S
O89          C91   1.286       .  A
O90        Zr108   2.424       .  S
O90          C91   1.288       .  A
C91         C585   1.472       .  S
O92        Zr720   2.434       .  S
O92          C94   1.284       .  A
O93        Zr107   2.423       .  S
O93          C94   1.287       .  A
C94         C581   1.467       .  S
O95        Zr104   2.442   1_545  S
O95          C97   1.287       .  A
O96        Zr108   2.412       .  S
O96          C97   1.285       .  A
C97         C577   1.462       .  S
O98        Zr717   2.430       .  S
O98         C100   1.284       .  A
O99        Zr107   2.406       .  S
O99         C100   1.285       .  A
C100        C589   1.463       .  S
Zr101       O714   2.427       .  S
Zr101       O718   2.435       .  S
Zr101       O719   2.435       .  S
Zr101       O109   2.359   1_565  S
Zr101       O111   2.375   1_565  S
Zr101       O726   2.372       .  S
Zr101       O729   2.368       .  S
O102       Zr717   2.438       .  S
O102        H738   0.990       .  S
O102        H743   0.990       .  S
O103       Zr717   2.434       .  S
O103        H739   0.990       .  S
Zr104       O708   2.443       .  S
Zr104       O105   2.435       .  S
Zr104       O722   2.434       .  S
Zr104       O109   2.371   1_565  S
Zr104       O114   2.373   1_565  S
Zr104       O726   2.370       .  S
Zr104       O728   2.369       .  S
O105        H737   0.990       .  S
O106       Zr720   2.434       .  S
O106        H736   0.990       .  S
O106        H746   0.990       .  S
Zr107       O110   2.378       .  S
Zr107       O112   2.384       .  S
Zr107       O113   2.388       .  S
Zr108       O109   2.382       .  S
Zr108       O111   2.382       .  S
Zr108       O114   2.388       .  S
O109        H117   0.964       .  S
O110       Zr717   2.368       .  S
O110       Zr720   2.369       .  S
O111       Zr697   2.372       .  S
O112       Zr720   2.371       .  S
O112        H116   0.963       .  S
O113       Zr717   2.375       .  S
O113        H118   0.962       .  S
O114       Zr700   2.373       .  S
H119        O702   0.990       .  S
H120        O722   0.990   1_545  S
H121        O721   0.990       .  S
H122        O718   0.990       .  S
H123        O719   0.990       .  S
H124        O699   0.990       .  S
H126        O701   0.990       .  S
H127        O718   0.990       .  S
H128        O699   0.990       .  S
H130        O722   0.990       .  S
N131        C136   1.350       .  A
N131        C135   1.350       .  A
N131        H163   1.042       .  S
N132        C139   1.345       .  A
N132        C140   1.345       .  A
N133        C138   1.352       .  A
N133        C137   1.353       .  A
N133        H164   1.041       .  S
N134        C141   1.352       .  A
N134        C142   1.351       .  A
C135        C143   1.386       .  A
C135        C151   1.407       .  A
C136        C152   1.413       .  A
C136        C144   1.388       .  A
C137        C145   1.386       .  A
C137        C154   1.411       .  A
C138        C153   1.416       .  A
C138        C146   1.387       .  A
C139        C151   1.399       .  A
C139        C147   1.387       .  A
C140        C154   1.400       .  A
C140        C148   1.386       .  A
C141        C149   1.387       .  A
C141        C152   1.412       .  A
C142        C150   1.388       .  A
C142        C153   1.412       .  A
C143        C144   1.377       .  A
C143        H155   1.082       .  S
C144        H156   1.082       .  S
C145        C146   1.378       .  A
C145        H157   1.082       .  S
C146        H158   1.082       .  S
C147        C148   1.370       .  A
C147        H159   1.083       .  S
C148        H160   1.082       .  S
C149        C150   1.370       .  A
C149        H161   1.082       .  S
C150        H162   1.082       .  S
C151        C573   1.435       .  S
C152        C578   1.491       .  S
C153        C582   1.491       .  S
C154        C575   1.441       .  S
N165        C170   1.348       .  A
N165        C169   1.351       .  A
N165        H197   1.043       .  S
N166        C173   1.347       .  A
N166        C174   1.344       .  A
N167        C172   1.353       .  A
N167        C171   1.350       .  A
N167        H198   1.042       .  S
N168        C175   1.348       .  A
N168        C176   1.350       .  A
C169        C177   1.386       .  A
C169        C185   1.408       .  A
C170        C186   1.412       .  A
C170        C178   1.388       .  A
C171        C179   1.387       .  A
C171        C188   1.410       .  A
C172        C187   1.415       .  A
C172        C180   1.387       .  A
C173        C185   1.400       .  A
C173        C181   1.386       .  A
C174        C188   1.401       .  A
C174        C182   1.388       .  A
C175        C183   1.387       .  A
C175        C186   1.407       .  A
C176        C184   1.387       .  A
C176        C187   1.408       .  A
C177        C178   1.379       .  A
C177        H189   1.082       .  S
C178        H190   1.082       .  S
C179        C180   1.379       .  A
C179        H191   1.082       .  S
C180        H192   1.082       .  S
C181        C182   1.372       .  A
C181        H193   1.083       .  S
C182        H194   1.083       .  S
C183        C184   1.372       .  A
C183        H195   1.082       .  S
C184        H196   1.082       .  S
C185        C571   1.443       .  S
C186        C590   1.481       .  S
C187        C586   1.492       .  S
C188        C569   1.436       .  S
O199       Zr211   2.441       .  S
O199        C201   1.286       .  A
O200      Zr1469   2.478   1_545  S
O200        C201   1.299       .  A
C201        C605   1.451       .  S
O202       Zr214   2.426       .  S
O202        C204   1.283       .  A
O203      Zr2086   2.441       .  S
O203        C204   1.290       .  A
C204        C561   1.429       .  S
O205       Zr214   2.430       .  S
O205        C207   1.285       .  A
O206      Zr2085   2.489       .  S
O206        C207   1.300       .  A
C207        C607   1.451       .  S
O208       Zr211   2.447       .  S
O208        C210   1.287       .  A
O209      Zr1470   2.447       .  S
O209        C210   1.291       .  A
C210        C565   1.444       .  S
Zr211       O212   2.434       .  S
Zr211       O213   2.436       .  S
Zr211       O217   2.397       .  S
Zr211       O218   2.343       .  S
Zr211      O1473   2.388       .  S
Zr211      O1475   2.340       .  S
O212        H255   0.990       .  S
O213        H254   0.990       .  S
O213        H258   0.990       .  S
Zr214       O215   2.433       .  S
Zr214       O216   2.434       .  S
Zr214       O834   2.346       .  S
Zr214       O833   2.389       .  S
Zr214      O1474   2.342       .  S
Zr214      O1476   2.391       .  S
O215        H256   0.990       .  S
O215        H259   0.990       .  S
O216        H249   0.990       .  S
O217       Zr830   2.391   1_545  S
O217      Zr1469   2.406   1_545  S
O218       Zr830   2.352   1_545  S
O218      Zr1470   2.386       .  S
O218        H245   0.964       .  S
O219       Zr231   2.425       .  S
O219        C221   1.284       .  A
O220       Zr238   2.452       .  S
O220        C221   1.292       .  A
C221        C568   1.433       .  S
O222       Zr234   2.441       .  S
O222        C224   1.287       .  A
O223       Zr853   2.482       .  S
O223        C224   1.299       .  A
C224        C595   1.453       .  S
O225       Zr234   2.459       .  S
O225        C227   1.290       .  A
O226       Zr854   2.461       .  S
O226        C227   1.293       .  A
C227        C564   1.455       .  S
O228       Zr231   2.438       .  S
O228        C230   1.286       .  A
O229       Zr237   2.474   1_545  S
O229        C230   1.297       .  A
C230        C594   1.449       .  S
Zr231       O232   2.438       .  S
Zr231       O233   2.433       .  S
Zr231       O239   2.352   1_545  S
Zr231       O240   2.385   1_545  S
Zr231       O243   2.341       .  S
Zr231       O241   2.398       .  S
O232        H252   0.990       .  S
O232        H257   0.990       .  S
O233        H253   0.990       .  S
Zr234       O235   2.434       .  S
Zr234       O236   2.436       .  S
Zr234       O244   2.388       .  S
Zr234       O242   2.349       .  S
Zr234       O856   2.403       .  S
Zr234       O855   2.348       .  S
O235        H251   0.990       .  S
O236        H250   0.990       .  S
O236        H260   0.990       .  S
Zr237      O1432   2.495   1_465  S
Zr237      O2054   2.476   1_455  S
Zr237       O839   2.490       .  S
Zr237       O240   2.407       .  S
Zr237       O243   2.387   1_565  S
Zr237      O1449   2.405   1_465  S
Zr237       O858   2.390       .  S
Zr238      O2051   2.453   1_445  S
Zr238      O1441   2.451   1_455  S
Zr238       O842   2.451   1_545  S
Zr238       O239   2.387   1_545  S
Zr238       O241   2.394       .  S
Zr238      O1450   2.386   1_455  S
Zr238       O860   2.396   1_545  S
O239       Zr850   2.343       .  S
O239        H247   0.965   1_565  S
O240       Zr850   2.404       .  S
O241      Zr1443   2.390   1_455  S
O242      Zr1446   2.344   1_455  S
O242       Zr853   2.388       .  S
O242        H246   0.962       .  S
O243      Zr1443   2.352   1_455  S
O243        H248   0.958       .  S
O244      Zr1446   2.390   1_455  S
O244       Zr854   2.390       .  S
O261      Zr1505   2.426       .  S
O261        C263   1.282       .  A
O262       Zr299   2.439       .  S
O262        C263   1.289       .  A
C263        C550   1.470       .  S
O264       Zr276   2.472   1_455  S
O264        C266   1.291       .  A
O265       Zr300   2.405       .  S
O265        C266   1.284       .  A
C266        C553   1.481       .  S
O267      Zr1508   2.428       .  S
O267        C269   1.286       .  A
O268       Zr299   2.407       .  S
O268        C269   1.282       .  A
C269        C557   1.466       .  S
O270       Zr273   2.464       .  S
O270        C272   1.289       .  A
O271       Zr300   2.423       .  S
O271        C272   1.282       .  A
C272        C545   1.483       .  S
Zr273      O1493   2.418   1_455  S
Zr273       O274   2.437       .  S
Zr273       O275   2.432       .  S
Zr273       O280   2.364       .  S
Zr273       O303   2.363       .  S
Zr273      O1537   2.385   1_455  S
Zr273      O1511   2.296   1_455  S
O274       H1549   0.990   1_455  S
O275        H320   0.991       .  S
O275       H1548   0.990       .  S
Zr276      O1499   2.430       .  S
Zr276       O278   2.433       .  S
Zr276      O1509   2.440       .  S
Zr276       O280   2.342   1_655  S
Zr276       O306   2.363   1_655  S
Zr276      O1536   2.366       .  S
Zr276      O1511   2.291       .  S
O277      Zr1508   2.440       .  S
O277       H1550   0.990       .  S
O277       H1553   0.990       .  S
O278       H1543   0.990       .  S
O279       Zr299   2.380       .  S
O279      Zr1505   2.387       .  S
O279      Zr1508   2.388       .  S
O280       Zr300   2.393       .  S
O280        H307   0.963       .  S
O281       Zr293   2.452       .  S
O281        C283   1.291       .  A
O282       Zr300   2.421   1_554  S
O282        C283   1.286       .  A
C283        C538   1.476       .  S
O284      Zr1528   2.403       .  S
O284        C286   1.281       .  A
O285       Zr299   2.431   1_554  S
O285        C286   1.287       .  A
C286        C534   1.458       .  S
O287       Zr296   2.439   1_455  S
O287        C289   1.287       .  A
O288       Zr300   2.415   1_554  S
O288        C289   1.284       .  A
C289        C530   1.465       .  S
O290      Zr1525   2.487       .  S
O290        C292   1.297       .  A
O291       Zr299   2.413   1_554  S
O291        C292   1.284       .  A
C292        C541   1.491       .  S
Zr293      O1522   2.476   1_455  S
Zr293       O294   2.437   1_455  S
Zr293       O295   2.434       .  S
Zr293       O301   2.389       .  S
Zr293       O303   2.387   1_554  S
Zr293      O1534   2.364   1_455  S
Zr293      O1537   2.380   1_454  S
O294        H314   0.990   1_655  S
O294        H319   0.990   1_655  S
O295        H315   0.990       .  S
Zr296      O1516   2.401       .  S
Zr296       O297   2.434       .  S
Zr296       O298   2.435       .  S
Zr296       O301   2.366   1_655  S
Zr296       O306   2.362   1_654  S
Zr296      O1534   2.376       .  S
Zr296      O1536   2.386   1_554  S
O297       H1545   0.990       .  S
O298        H312   0.990       .  S
O298        H322   0.990       .  S
Zr299       O302   2.370   1_556  S
Zr299       O304   2.393       .  S
Zr299       O305   2.391       .  S
Zr300       O301   2.383   1_556  S
Zr300       O303   2.392       .  S
Zr300       O306   2.383       .  S
O301        H309   0.966       .  S
O302      Zr1525   2.360       .  S
O302      Zr1528   2.370       .  S
O304      Zr1508   2.366       .  S
O304      Zr1528   2.379   1_556  S
O304        H308   0.963       .  S
O305      Zr1505   2.387       .  S
O305      Zr1525   2.377   1_556  S
O305        H310   0.966       .  S
H311       O1510   0.990       .  S
H313       O1529   0.990       .  S
H316       O1507   0.990       .  S
H317       O1506   0.990       .  S
H318       O1509   0.990   1_455  S
H321       O1509   0.991       .  S
N323        C328   1.346       .  A
N323        C327   1.345       .  A
N323        H355   1.045       .  S
N324        C331   1.358       .  A
N324        C332   1.354       .  A
N325        C330   1.360       .  A
N325        C329   1.358       .  A
N325        H356   1.043       .  S
N326        C333   1.394       .  A
N326        C334   1.386       .  A
C327        C335   1.390       .  A
C327        C343   1.400       .  A
C328        C344   1.388       .  A
C328        C336   1.383       .  A
C329        C337   1.387       .  A
C329        C346   1.420       .  A
C330        C345   1.420       .  A
C330        C338   1.388       .  A
C331        C343   1.416       .  A
C331        C339   1.384       .  A
C332        C346   1.421       .  A
C332        C340   1.388       .  A
C333        C341   1.380       .  A
C333        C344   1.411       .  A
C334        C342   1.413       .  A
C334        C345   1.415       .  A
C335        C336   1.376       .  A
C335        H347   1.082       .  S
C336        H348   1.082       .  S
C337        C338   1.374       .  A
C337        H349   1.082       .  S
C338        H350   1.081       .  S
C339        C340   1.379       .  A
C339        H351   1.082       .  S
C340        H352   1.082       .  S
C341        C342   1.329       .  A
C341        H353   1.155       .  S
C342        H354   1.170       .  S
C343        C525   1.449       .  S
C344        C378   1.507       .  S
C345        C549   1.498       .  S
C346        C527   1.463       .  S
N357        C362   1.349       .  A
N357        C361   1.346       .  A
N357        H389   1.045       .  S
N358        C365   1.346       .  A
N358        C366   1.340       .  A
N359        C364   1.351       .  A
N359        C363   1.357       .  A
N359        H390   1.038       .  S
N360        C367   1.350       .  A
N360        C368   1.350       .  A
C361        C369   1.380       .  A
C361        C377   1.392       .  A
C362        C378   1.395       .  A
C362        C370   1.371       .  A
C363        C371   1.387       .  A
C363        C380   1.420       .  A
C364        C379   1.419       .  A
C364        C372   1.388       .  A
C365        C377   1.400       .  A
C365        C373   1.386       .  A
C366        C380   1.406       .  A
C366        C374   1.389       .  A
C367        C375   1.386       .  A
C367        C378   1.415       .  A
C368        C376   1.388       .  A
C368        C379   1.419       .  A
C369        C370   1.372       .  A
C369        H381   1.082       .  S
C370        H382   1.073       .  S
C371        C372   1.384       .  A
C371        H383   1.082       .  S
C372        H384   1.082       .  S
C373        C374   1.378       .  A
C373        H385   1.081       .  S
C374        H386   1.082       .  S
C375        C376   1.383       .  A
C375        H387   1.082       .  S
C376        H388   1.082       .  S
C377        C558   1.479       .  S
C379        C522   1.457       .  S
C380        C524   1.448       .  S
O391       Zr403   2.431       .  S
O391        C393   1.284       .  A
O392      Zr1661   2.417       .  S
O392        C393   1.284       .  A
C393        C576   1.425       .  S
O394      Zr1022   2.406       .  S
O394        C396   1.279       .  A
O395       Zr430   2.432       .  S
O395        C396   1.287       .  A
C396        C570   1.420       .  S
O397       Zr406   2.417       .  S
O397        C399   1.282       .  A
O398       Zr429   2.436       .  S
O398        C399   1.288       .  A
C399        C572   1.428       .  S
O400      Zr1019   2.413   1_545  S
O400        C402   1.280       .  A
O401      Zr1662   2.424       .  S
O401        C402   1.286       .  A
C402        C574   1.418       .  S
Zr403      O1016   2.438       .  S
Zr403       O404   2.435       .  S
Zr403       O405   2.437       .  S
Zr403       O435   2.361       .  S
Zr403      O1641   2.365       .  S
Zr403      O2258   2.369       .  S
Zr403      O1049   2.356       .  S
O404        H447   0.991       .  S
O405        H446   0.990       .  S
O405        H450   0.990       .  S
Zr406      O1010   2.412       .  S
Zr406       O407   2.438       .  S
Zr406       O408   2.434       .  S
Zr406       O409   2.360       .  S
Zr406       O434   2.352       .  S
Zr406      O1026   2.349       .  S
Zr406      O1052   2.371       .  S
O407        H448   0.990       .  S
O407        H451   0.990       .  S
O408        H441   0.990       .  S
O409       Zr429   2.385       .  S
O409      Zr1635   2.365   1_455  S
O410       Zr430   2.392   1_655  S
O410      Zr2251   2.372   1_545  S
O410      Zr1022   2.358   1_655  S
O410        H437   0.964       .  S
O411      Zr1039   2.415   1_545  S
O411        C413   1.280       .  A
O412      Zr1662   2.446       .  S
O412        C413   1.289       .  A
C413        C523   1.431       .  S
O414       Zr426   2.430       .  S
O414        C416   1.285       .  A
O415       Zr429   2.452       .  S
O415        C416   1.291       .  A
C416        C526   1.437       .  S
O417      Zr1042   2.435       .  S
O417        C419   1.284       .  A
O418       Zr430   2.453       .  S
O418        C419   1.291       .  A
C419        C521   1.444       .  S
O420       Zr423   2.421       .  S
O420        C422   1.281       .  A
O421      Zr1661   2.470       .  S
O421        C422   1.294       .  A
C422        C528   1.444       .  S
Zr423      O1027   2.413       .  S
Zr423       O424   2.435       .  S
Zr423       O425   2.436       .  S
Zr423       O435   2.378       .  S
Zr423      O2279   2.370       .  S
Zr423      O1664   2.369       .  S
Zr423      O1049   2.374       .  S
O424        H449   0.990       .  S
O424       H1060   0.990       .  S
O425        H445   0.991       .  S
Zr426      O1033   2.427       .  S
Zr426       O427   2.435       .  S
Zr426       O428   2.437       .  S
Zr426       O432   2.382       .  S
Zr426       O434   2.367       .  S
Zr426      O1047   2.380       .  S
Zr426      O1052   2.369       .  S
O427        H443   0.990       .  S
O428        H442   0.991       .  S
O428        H452   0.990       .  S
Zr429      O1624   2.427   1_455  S
Zr429      O1653   2.471   1_455  S
Zr429       O432   2.392       .  S
Zr429       O434   2.389       .  S
Zr429      O1667   2.392   1_455  S
Zr430      O1633   2.415   1_455  S
Zr430      O1644   2.455   1_455  S
Zr430       O431   2.393       .  S
Zr430       O436   2.384       .  S
Zr430      O1665   2.382   1_455  S
O431      Zr2271   2.370   1_445  S
O431      Zr1042   2.375       .  S
O431        H439   0.967       .  S
O432      Zr1655   2.370   1_455  S
O433      Zr1019   2.359   1_545  S
O433      Zr1039   2.370   1_545  S
O433      Zr1662   2.387       .  S
O434        H438   0.965       .  S
O435      Zr1661   2.392       .  S
O435        H440   0.966       .  S
O436      Zr1022   2.370       .  S
O436      Zr1042   2.367       .  S
H444       O1040   0.990       .  S
N453        C458   1.355       .  A
N453        C457   1.355       .  A
N453        H485   1.038       .  S
N454        C461   1.348       .  A
N454        C462   1.351       .  A
N455        C460   1.352       .  A
N455        C459   1.355       .  A
N455        H486   1.039       .  S
N456        C463   1.355       .  A
N456        C464   1.353       .  A
C457        C465   1.387       .  A
C457        C473   1.419       .  A
C458        C474   1.419       .  A
C458        C466   1.388       .  A
C459        C467   1.385       .  A
C459        C476   1.418       .  A
C460        C475   1.417       .  A
C460        C468   1.390       .  A
C461        C473   1.407       .  A
C461        C469   1.388       .  A
C462        C476   1.406       .  A
C462        C470   1.385       .  A
C463        C471   1.385       .  A
C463        C474   1.414       .  A
C464        C472   1.389       .  A
C464        C475   1.419       .  A
C465        C466   1.380       .  A
C465        H477   1.082       .  S
C466        H478   1.082       .  S
C467        C468   1.365       .  A
C467        H479   1.081       .  S
C468        H480   1.077       .  S
C469        C470   1.369       .  A
C469        H481   1.082       .  S
C470        H482   1.082       .  S
C471        C472   1.371       .  A
C471        H483   1.082       .  S
C472        H484   1.082       .  S
C473        C567   1.449       .  S
C474        C566   1.460       .  S
C475        C533   1.483       .  S
C476        C529   1.491       .  S
N487        C492   1.359       .  A
N487        C491   1.352       .  A
N487        H519   1.039       .  S
N488        C495   1.350       .  A
N488        C496   1.355       .  A
N489        C494   1.354       .  A
N489        C493   1.361       .  A
N489        H520   1.042       .  S
N490        C497   1.356       .  A
N490        C498   1.350       .  A
C491        C499   1.389       .  A
C491        C507   1.420       .  A
C492        C508   1.422       .  A
C492        C500   1.387       .  A
C493        C501   1.385       .  A
C493        C510   1.423       .  A
C494        C509   1.422       .  A
C494        C502   1.387       .  A
C495        C507   1.410       .  A
C495        C503   1.388       .  A
C496        C510   1.412       .  A
C496        C504   1.386       .  A
C497        C505   1.385       .  A
C497        C508   1.413       .  A
C498        C506   1.390       .  A
C498        C509   1.416       .  A
C499        C500   1.382       .  A
C499        H511   1.083       .  S
C500        H512   1.082       .  S
C501        C502   1.378       .  A
C501        H513   1.082       .  S
C502        H514   1.082       .  S
C503        C504   1.368       .  A
C503        H515   1.082       .  S
C504        H516   1.082       .  S
C505        C506   1.372       .  A
C505        H517   1.082       .  S
C506        H518   1.082       .  S
C507        C562   1.447       .  S
C508        C563   1.469       .  S
C509        C537   1.490       .  S
C510        C542   1.511       .  S
C521        C522   1.212       .  T
C523        C524   1.206       .  T
C525        C526   1.208       .  T
C527        C528   1.214       .  T
C529        C530   1.341       .  D
C529        H531   1.088       .  S
C530        H532   1.086       .  S
C533        C534   1.341       .  D
C533        H535   1.088       .  S
C534        H536   1.085       .  S
C537        C538   1.343       .  D
C537        H539   1.087       .  S
C538        H540   1.087       .  S
C541        C542   1.346       .  D
C541        H543   1.086       .  S
C542        H544   1.086       .  S
C545        C546   1.348       .  D
C545        H547   1.087       .  S
C546        H548   1.086       .  S
C546        C554   1.485       .  S
C549        C550   1.338       .  D
C549        H551   1.087       .  S
C550        H552   1.087       .  S
C553        C554   1.356       .  D
C553        H555   1.086       .  S
C554        H556   1.084       .  S
C557        C558   1.345       .  D
C557        H559   1.087       .  S
C558        H560   1.085       .  S
C561        C562   1.204       .  T
C563        C564   1.219       .  T
C565        C566   1.212       .  T
C567        C568   1.206       .  T
C569        C570   1.198       .  T
C571        C572   1.202       .  T
C573        C574   1.197       .  T
C575        C576   1.201       .  T
C577        C578   1.342       .  D
C577        H579   1.084       .  S
C578        H580   1.087       .  S
C581        C582   1.340       .  D
C581        H583   1.085       .  S
C582        H584   1.087       .  S
C585        C586   1.341       .  D
C585        H587   1.085       .  S
C586        H588   1.087       .  S
C589        C590   1.339       .  D
C589        H591   1.086       .  S
C590        H592   1.087       .  S
C593        C594   1.216       .  T
C595        C596   1.218       .  T
C597        C598   1.346       .  D
C597        H599   1.088       .  S
C598        H600   1.086       .  S
C601        C602   1.347       .  D
C601        H603   1.088       .  S
C602        H604   1.085       .  S
C605        C606   1.217       .  T
C607        C608   1.217       .  T
C609        C610   1.343       .  D
C609        H611   1.087       .  S
C610        H612   1.087       .  S
C613        C614   1.344       .  D
C613        H615   1.087       .  S
C614        H616   1.087       .  S
N617        C622   1.359       .  A
N617        C621   1.360       .  A
N617        H649   1.040       .  S
N618        C625   1.349       .  A
N618        C626   1.351       .  A
N619        C624   1.350       .  A
N619        C623   1.349       .  A
N619        H650   1.042       .  S
N620        C627   1.349       .  A
N620        C628   1.353       .  A
C621        C629   1.387       .  A
C621        C637   1.429       .  A
C622        C638   1.430       .  A
C622        C630   1.388       .  A
C623        C631   1.388       .  A
C623        C640   1.405       .  A
C624        C639   1.406       .  A
C624        C632   1.387       .  A
C625        C637   1.408       .  A
C625        C633   1.387       .  A
C626        C640   1.412       .  A
C626        C634   1.386       .  A
C627        C635   1.387       .  A
C627        C638   1.410       .  A
C628        C636   1.385       .  A
C628        C639   1.413       .  A
C629        C630   1.390       .  A
C629        H641   1.082       .  S
C630        H642   1.082       .  S
C631        C632   1.373       .  A
C631        H643   1.083       .  S
C632        H644   1.083       .  S
C633        C634   1.374       .  A
C633        H645   1.082       .  S
C634        H646   1.082       .  S
C635        C636   1.375       .  A
C635        H647   1.082       .  S
C636        H648   1.082       .  S
C637       C1222   1.467       .  S
C638       C1224   1.465       .  S
C639       C1229   1.490       .  S
C640       C1226   1.484       .  S
N651        C656   1.355       .  A
N651        C655   1.352       .  A
N651        H683   1.042       .  S
N652        C659   1.359       .  A
N652        C660   1.359       .  A
N653        C658   1.355       .  A
N653        C657   1.351       .  A
N653        H684   1.041       .  S
N654        C661   1.346       .  A
N654        C662   1.346       .  A
C655        C663   1.388       .  A
C655        C671   1.411       .  A
C656        C672   1.414       .  A
C656        C664   1.387       .  A
C657        C665   1.388       .  A
C657        C674   1.411       .  A
C658        C673   1.415       .  A
C658        C666   1.387       .  A
C659        C671   1.427       .  A
C659        C667   1.386       .  A
C660        C674   1.429       .  A
C660        C668   1.387       .  A
C661        C669   1.387       .  A
C661        C672   1.402       .  A
C662        C670   1.387       .  A
C662        C673   1.402       .  A
C663        C664   1.373       .  A
C663        H675   1.082       .  S
C664        H676   1.082       .  S
C665        C666   1.374       .  A
C665        H677   1.082       .  S
C666        H678   1.082       .  S
C667        C668   1.387       .  A
C667        H679   1.082       .  S
C668        H680   1.082       .  S
C669        C670   1.369       .  A
C669        H681   1.083       .  S
C670        H682   1.083       .  S
C671       C1209   1.467       .  S
C672       C1213   1.480       .  S
C673       C1217   1.480       .  S
C674       C1212   1.468       .  S
O685       Zr697   2.427   1_565  S
O685        C687   1.284       .  A
O686       Zr723   2.420       .  S
O686        C687   1.288       .  A
C687       C1218   1.470       .  S
O688        C690   1.283       .  A
O689       Zr724   2.427       .  S
O689        C690   1.289       .  A
C690       C1225   1.464       .  S
O691       Zr700   2.436   1_565  S
O691        C693   1.285       .  A
O692       Zr723   2.428       .  S
O692        C693   1.288       .  A
C693       C1230   1.471       .  S
O694        C696   1.284       .  A
O695       Zr724   2.416       .  S
O695        C696   1.287       .  A
C696       C1214   1.469       .  S
Zr697       O698   2.435       .  S
Zr697       O703   2.375   1_545  S
Zr697       O729   2.368   1_545  S
O698        H741   0.990       .  S
Zr700       O701   2.437       .  S
Zr700       O703   2.375   1_545  S
Zr700       O728   2.375   1_545  S
O701        H745   0.990       .  S
O703       Zr723   2.379       .  S
O704       Zr724   2.383       .  S
O704        H731   0.965       .  S
O705       Zr717   2.447       .  S
O705        C707   1.289       .  A
O706       Zr724   2.429       .  S
O706        C707   1.286       .  A
C707       C1201   1.481       .  S
O708        C710   1.289       .  A
O709       Zr723   2.419       .  S
O709        C710   1.284       .  A
C710       C1197   1.477       .  S
O711       Zr720   2.441       .  S
O711        C713   1.288       .  A
O712       Zr724   2.423       .  S
O712        C713   1.285       .  A
C713       C1193   1.477       .  S
O714        C716   1.286       .  A
O715       Zr723   2.430       .  S
O715        C716   1.287       .  A
C716       C1205   1.476       .  S
Zr717       O725   2.364       .  S
Zr717       O727   2.367       .  S
Zr720       O721   2.434       .  S
Zr720       O725   2.368       .  S
Zr720       O730   2.367       .  S
Zr723       O726   2.376       .  S
Zr723       O728   2.388       .  S
Zr723       O729   2.384       .  S
Zr724       O725   2.380       .  S
Zr724       O727   2.381       .  S
Zr724       O730   2.384       .  S
O725        H733   0.964       .  S
O728        H732   0.963       .  S
O729        H734   0.966       .  S
N747        C752   1.351       .  A
N747        C751   1.355       .  A
N747        H779   1.039       .  S
N748        C755   1.346       .  A
N748        C756   1.345       .  A
N749        C754   1.352       .  A
N749        C753   1.353       .  A
N749        H780   1.038       .  S
N750        C757   1.352       .  A
N750        C758   1.352       .  A
C751        C759   1.385       .  A
C751        C767   1.411       .  A
C752        C768   1.417       .  A
C752        C760   1.390       .  A
C753        C761   1.385       .  A
C753        C770   1.411       .  A
C754        C769   1.417       .  A
C754        C762   1.390       .  A
C755        C767   1.401       .  A
C755        C763   1.387       .  A
C756        C770   1.401       .  A
C756        C764   1.387       .  A
C757        C765   1.387       .  A
C757        C768   1.416       .  A
C758        C766   1.385       .  A
C758        C769   1.415       .  A
C759        C760   1.377       .  A
C759        H771   1.082       .  S
C760        H772   1.082       .  S
C761        C762   1.375       .  A
C761        H773   1.082       .  S
C762        H774   1.082       .  S
C763        C764   1.369       .  A
C763        H775   1.082       .  S
C764        H776   1.082       .  S
C765        C766   1.375       .  A
C765        H777   1.082       .  S
C766        H778   1.082       .  S
C767       C1189   1.444       .  S
C768       C1194   1.489       .  S
C769       C1198   1.489       .  S
C770       C1191   1.440       .  S
N781        C786   1.352       .  A
N781        C785   1.355       .  A
N781        H813   1.040       .  S
N782        C789   1.346       .  A
N782        C790   1.346       .  A
N783        C788   1.352       .  A
N783        C787   1.354       .  A
N783        H814   1.040       .  S
N784        C791   1.351       .  A
N784        C792   1.353       .  A
C785        C793   1.385       .  A
C785        C801   1.412       .  A
C786        C802   1.417       .  A
C786        C794   1.390       .  A
C787        C795   1.386       .  A
C787        C804   1.413       .  A
C788        C803   1.416       .  A
C788        C796   1.389       .  A
C789        C801   1.401       .  A
C789        C797   1.387       .  A
C790        C804   1.402       .  A
C790        C798   1.388       .  A
C791        C799   1.385       .  A
C791        C802   1.413       .  A
C792        C800   1.386       .  A
C792        C803   1.416       .  A
C793        C794   1.377       .  A
C793        H805   1.082       .  S
C794        H806   1.082       .  S
C795        C796   1.378       .  A
C795        H807   1.082       .  S
C796        H808   1.082       .  S
C797        C798   1.369       .  A
C797        H809   1.083       .  S
C798        H810   1.082       .  S
C799        C800   1.375       .  A
C799        H811   1.082       .  S
C800        H812   1.082       .  S
C801       C1187   1.444       .  S
C802       C1206   1.489       .  S
C803       C1202   1.493       .  S
C804       C1185   1.444       .  S
O815       Zr827   2.445       .  S
O815        C817   1.287       .  A
O816      Zr2085   2.481       .  S
O816        C817   1.299       .  A
C817       C1221   1.454       .  S
O818       Zr830   2.437       .  S
O818        C820   1.286       .  A
O819      Zr1470   2.450   1_565  S
O819        C820   1.291       .  A
C820       C1177   1.438       .  S
O821       Zr830   2.442       .  S
O821        C823   1.287       .  A
O822      Zr1469   2.479       .  S
O822        C823   1.298       .  A
C823       C1223   1.453       .  S
O824       Zr827   2.450       .  S
O824        C826   1.288       .  A
O825      Zr2086   2.458       .  S
O825        C826   1.293       .  A
C826       C1181   1.449       .  S
Zr827       O828   2.435       .  S
Zr827       O829   2.437       .  S
Zr827       O833   2.397       .  S
Zr827       O834   2.344       .  S
Zr827      O2089   2.393       .  S
Zr827      O2091   2.346       .  S
O828        H871   0.990       .  S
O829        H870   0.990       .  S
O829        H874   0.990       .  S
Zr830       O831   2.435       .  S
Zr830       O832   2.434       .  S
Zr830      O2090   2.345       .  S
Zr830      O2092   2.393       .  S
O831        H872   0.990       .  S
O831        H875   0.990       .  S
O832        H865   0.990       .  S
O833      Zr2085   2.403       .  S
O834      Zr2086   2.383       .  S
O834        H861   0.965       .  S
O835       Zr847   2.433       .  S
O835        C837   1.285       .  A
O836       Zr854   2.441       .  S
O836        C837   1.290       .  A
C837       C1184   1.434       .  S
O838       Zr850   2.444       .  S
O838        C840   1.288       .  A
O839        C840   1.301       .  A
C840       C1211   1.456       .  S
O841       Zr850   2.477       .  S
O841        C843   1.293       .  A
O842        C843   1.291       .  A
C843       C1180   1.458       .  S
O844       Zr847   2.443       .  S
O844        C846   1.287       .  A
O845       Zr853   2.483       .  S
O845        C846   1.299       .  A
C846       C1210   1.454       .  S
Zr847       O848   2.434       .  S
Zr847       O849   2.434       .  S
Zr847       O855   2.351       .  S
Zr847       O856   2.391       .  S
Zr847       O859   2.340       .  S
Zr847       O857   2.393       .  S
O848        H868   0.990       .  S
O848        H873   0.990       .  S
O849        H869   0.990       .  S
Zr850       O851   2.434       .  S
Zr850       O852   2.437       .  S
Zr850       O860   2.385       .  S
Zr850       O858   2.354       .  S
O851        H867   0.990       .  S
O852        H866   0.990       .  S
O852        H876   0.990       .  S
Zr853      O2048   2.485   1_455  S
Zr853      O1438   2.478   1_455  S
Zr853      O2065   2.407   1_455  S
Zr853       O856   2.408       .  S
Zr853       O859   2.383       .  S
Zr854      O1435   2.449   1_455  S
Zr854      O2057   2.448   1_455  S
Zr854      O2066   2.389   1_455  S
Zr854       O855   2.386       .  S
Zr854       O857   2.396       .  S
O855        H863   0.965       .  S
O857      Zr2059   2.395   1_455  S
O858      Zr2062   2.338   1_455  S
O858        H862   0.960       .  S
O859      Zr2059   2.341   1_455  S
O859        H864   0.958       .  S
O860      Zr2062   2.399   1_455  S
O877      Zr2121   2.418       .  S
O877        C879   1.281       .  A
O878       Zr915   2.456       .  S
O878        C879   1.291       .  A
C879       C1166   1.476       .  S
O880       Zr892   2.470   1_455  S
O880        C882   1.290       .  A
O881       Zr916   2.410       .  S
O881        C882   1.284       .  A
C882       C1169   1.481       .  S
O883      Zr2124   2.438       .  S
O883        C885   1.287       .  A
O884       Zr915   2.407       .  S
O884        C885   1.281       .  A
C885       C1173   1.475       .  S
O886       Zr889   2.470       .  S
O886        C888   1.290       .  A
O887       Zr916   2.418       .  S
O887        C888   1.281       .  A
C888       C1161   1.484       .  S
Zr889      O2109   2.416   1_455  S
Zr889       O890   2.435       .  S
Zr889       O891   2.433       .  S
Zr889       O896   2.364       .  S
Zr889       O919   2.355       .  S
Zr889      O2153   2.378   1_455  S
Zr889      O2127   2.299   1_455  S
O890       H2165   0.990   1_455  S
O891       H2164   0.991   1_455  S
O891        H936   0.990       .  S
Zr892      O2115   2.430       .  S
Zr892      O2125   2.439       .  S
Zr892       O894   2.433       .  S
Zr892       O896   2.345   1_655  S
Zr892      O2152   2.366       .  S
Zr892       O922   2.365   1_655  S
Zr892      O2127   2.290       .  S
O893      Zr2124   2.438       .  S
O893       H2166   0.990       .  S
O893       H2169   0.990       .  S
O894       H2159   0.990       .  S
O895      Zr2121   2.294       .  S
O895      Zr2124   2.287       .  S
O895       Zr915   2.267       .  S
O896       Zr916   2.392       .  S
O896        H923   0.935       .  S
O897       Zr909   2.463   1_455  S
O897        C899   1.293       .  A
O898       Zr916   2.423   1_554  S
O898        C899   1.286       .  A
C899       C1154   1.483       .  S
O900      Zr2144   2.396       .  S
O900        C902   1.280       .  A
O901       Zr915   2.447   1_554  S
O901        C902   1.290       .  A
C902       C1150   1.461       .  S
O903       Zr912   2.441   1_455  S
O903        C905   1.287       .  A
O904       Zr916   2.403   1_554  S
O904        C905   1.281       .  A
C905       C1146   1.460       .  S
O906      Zr2141   2.484       .  S
O906        C908   1.296       .  A
O907       Zr915   2.400   1_554  S
O907        C908   1.281       .  A
C908       C1157   1.483       .  S
Zr909      O2138   2.477       .  S
Zr909       O910   2.438   1_655  S
Zr909       O911   2.434       .  S
Zr909       O917   2.385   1_655  S
Zr909      O2150   2.366       .  S
Zr909      O2153   2.379   1_554  S
Zr909       O919   2.387   1_654  S
O910        H930   0.990       .  S
O910        H935   0.990       .  S
O911        H931   0.990   1_655  S
Zr912      O2132   2.409       .  S
Zr912       O913   2.436       .  S
Zr912       O914   2.436       .  S
Zr912      O2150   2.374       .  S
Zr912       O917   2.368   1_655  S
Zr912       O922   2.368   1_654  S
Zr912      O2152   2.391   1_554  S
O913       H2161   0.990   1_655  S
O914        H928   0.990       .  S
O914        H938   0.990       .  S
Zr915       O918   2.376   1_556  S
Zr915       O920   2.393       .  S
Zr915       O921   2.394       .  S
Zr916       O917   2.386   1_556  S
Zr916       O919   2.391       .  S
Zr916       O922   2.387       .  S
O917        H925   0.966       .  S
O918      Zr2141   2.366       .  S
O918      Zr2144   2.380       .  S
O920      Zr2124   2.362       .  S
O920      Zr2144   2.390   1_556  S
O920        H924   0.966       .  S
O921      Zr2121   2.378       .  S
O921      Zr2141   2.382   1_556  S
O921        H926   0.965       .  S
H927       O2126   0.990       .  S
H929       O2145   0.990       .  S
H932       O2123   0.991       .  S
H933       O2122   0.990       .  S
H934       O2125   0.990       .  S
H937       O2125   0.991       .  S
N939        C944   1.346       .  A
N939        C943   1.344       .  A
N939        H971   1.044       .  S
N940        C947   1.359       .  A
N940        C948   1.355       .  A
N941        C946   1.361       .  A
N941        C945   1.358       .  A
N941        H972   1.043       .  S
N942        C949   1.394       .  A
N942        C950   1.385       .  A
C943        C951   1.389       .  A
C943        C959   1.397       .  A
C944        C960   1.391       .  A
C944        C952   1.385       .  A
C945        C953   1.387       .  A
C945        C962   1.422       .  A
C946        C961   1.423       .  A
C946        C954   1.388       .  A
C947        C959   1.416       .  A
C947        C955   1.384       .  A
C948        C962   1.421       .  A
C948        C956   1.389       .  A
C949        C957   1.379       .  A
C949        C960   1.409       .  A
C950        C958   1.413       .  A
C950        C961   1.414       .  A
C951        C952   1.376       .  A
C951        H963   1.082       .  S
C952        H964   1.082       .  S
C953        C954   1.377       .  A
C953        H965   1.082       .  S
C954        H966   1.081       .  S
C955        C956   1.378       .  A
C955        H967   1.082       .  S
C956        H968   1.082       .  S
C957        C958   1.330       .  A
C957        H969   1.156       .  S
C958        H970   1.171       .  S
C959       C1141   1.446       .  S
C960        C994   1.506       .  S
C961       C1165   1.504       .  S
C962       C1143   1.463       .  S
N973        C978   1.351       .  A
N973        C977   1.348       .  A
N973       H1005   1.045       .  S
N974        C981   1.346       .  A
N974        C982   1.340       .  A
N975        C980   1.352       .  A
N975        C979   1.358       .  A
N975       H1006   1.037       .  S
N976        C983   1.353       .  A
N976        C984   1.353       .  A
C977        C985   1.381       .  A
C977        C993   1.396       .  A
C978        C994   1.392       .  A
C978        C986   1.372       .  A
C979        C987   1.387       .  A
C979        C996   1.424       .  A
C980        C995   1.422       .  A
C980        C988   1.388       .  A
C981        C993   1.405       .  A
C981        C989   1.386       .  A
C982        C996   1.408       .  A
C982        C990   1.389       .  A
C983        C991   1.384       .  A
C983        C994   1.416       .  A
C984        C992   1.388       .  A
C984        C995   1.422       .  A
C985        C986   1.370       .  A
C985        H997   1.082       .  S
C986        H998   1.075       .  S
C987        C988   1.384       .  A
C987        H999   1.082       .  S
C988       H1000   1.082       .  S
C989        C990   1.379       .  A
C989       H1001   1.081       .  S
C990       H1002   1.082       .  S
C991        C992   1.382       .  A
C991       H1003   1.082       .  S
C992       H1004   1.082       .  S
C993       C1174   1.485       .  S
C995       C1138   1.463       .  S
C996       C1140   1.452       .  S
O1007     Zr1019   2.423       .  S
O1007      C1009   1.281       .  A
O1008     Zr2277   2.419       .  S
O1008      C1009   1.284       .  A
C1009      C1192   1.423       .  S
O1010      C1012   1.280       .  A
O1011     Zr1046   2.445       .  S
O1011      C1012   1.290       .  A
C1012      C1186   1.428       .  S
O1013     Zr1022   2.419   1_565  S
O1013      C1015   1.282       .  A
O1014     Zr1045   2.433       .  S
O1014      C1015   1.288       .  A
C1015      C1188   1.428       .  S
O1016      C1018   1.284       .  A
O1017     Zr2278   2.426       .  S
O1017      C1018   1.286       .  A
C1018      C1190   1.428       .  S
Zr1019     O1020   2.435   1_565  S
Zr1019     O1021   2.433       .  S
Zr1019     O2257   2.349       .  S
Zr1019     O1642   2.374   1_565  S
Zr1019     O1051   2.362       .  S
O1020      H1063   0.990       .  S
O1021      H1062   0.991       .  S
O1021      H1066   0.990   1_565  S
Zr1022     O1023   2.438       .  S
Zr1022     O1024   2.434   1_545  S
Zr1022     O1025   2.352   1_445  S
Zr1022     O1050   2.350   1_545  S
O1023      H1064   0.990       .  S
O1023      H1067   0.990       .  S
O1024      H1057   0.990       .  S
O1025     Zr2251   2.355       .  S
O1025     Zr1045   2.376   1_655  S
O1026     Zr1635   2.366   1_455  S
O1026     Zr1046   2.393       .  S
O1026      H1053   0.963   1_455  S
O1027      C1029   1.280       .  A
O1028     Zr2278   2.457       .  S
O1028      C1029   1.291       .  A
C1029      C1139   1.434       .  S
O1030     Zr1042   2.421   1_565  S
O1030      C1032   1.283       .  A
O1031     Zr1045   2.450       .  S
O1031      C1032   1.291       .  A
C1032      C1142   1.432       .  S
O1033      C1035   1.283       .  A
O1034     Zr1046   2.472       .  S
O1034      C1035   1.295       .  A
C1035      C1137   1.448       .  S
O1036     Zr1039   2.413       .  S
O1036      C1038   1.280       .  A
O1037     Zr2277   2.476       .  S
O1037      C1038   1.295       .  A
C1038      C1144   1.444       .  S
Zr1039     O1040   2.434   1_565  S
Zr1039     O1041   2.436       .  S
Zr1039     O1663   2.363   1_565  S
Zr1039     O2280   2.369       .  S
Zr1039     O1051   2.382       .  S
O1040      H1065   0.990   1_545  S
O1041      H1061   0.990       .  S
Zr1042     O1043   2.436       .  S
Zr1042     O1044   2.438       .  S
Zr1042     O1048   2.380   1_545  S
Zr1042     O1050   2.378   1_545  S
O1043      H1059   0.990   1_545  S
O1044      H1058   0.991       .  S
O1044      H1068   0.990       .  S
Zr1045     O2240   2.436   1_455  S
Zr1045     O2269   2.462   1_455  S
Zr1045     O1048   2.394       .  S
Zr1045     O1050   2.392       .  S
Zr1045     O2283   2.395   1_455  S
Zr1046     O2249   2.439   1_455  S
Zr1046     O2260   2.471   1_455  S
Zr1046     O1047   2.396       .  S
Zr1046     O2281   2.387   1_455  S
Zr1046     O1052   2.389       .  S
O1047     Zr1655   2.366   1_455  S
O1047      H1055   0.966       .  S
O1048     Zr2271   2.368   1_455  S
O1049     Zr2278   2.384       .  S
O1050      H1054   0.962       .  S
O1051     Zr2277   2.392       .  S
O1051      H1056   0.965       .  S
N1069      C1074   1.357       .  A
N1069      C1073   1.357       .  A
N1069      H1101   1.038       .  S
N1070      C1077   1.348       .  A
N1070      C1078   1.349       .  A
N1071      C1076   1.353       .  A
N1071      C1075   1.354       .  A
N1071      H1102   1.039       .  S
N1072      C1079   1.355       .  A
N1072      C1080   1.354       .  A
C1073      C1081   1.386       .  A
C1073      C1089   1.420       .  A
C1074      C1090   1.423       .  A
C1074      C1082   1.389       .  A
C1075      C1083   1.383       .  A
C1075      C1092   1.414       .  A
C1076      C1091   1.419       .  A
C1076      C1084   1.391       .  A
C1077      C1089   1.406       .  A
C1077      C1085   1.388       .  A
C1078      C1092   1.404       .  A
C1078      C1086   1.385       .  A
C1079      C1087   1.385       .  A
C1079      C1090   1.417       .  A
C1080      C1088   1.389       .  A
C1080      C1091   1.421       .  A
C1081      C1082   1.381       .  A
C1081      H1093   1.082       .  S
C1082      H1094   1.082       .  S
C1083      C1084   1.365       .  A
C1083      H1095   1.082       .  S
C1084      H1096   1.076       .  S
C1085      C1086   1.368       .  A
C1085      H1097   1.082       .  S
C1086      H1098   1.082       .  S
C1087      C1088   1.374       .  A
C1087      H1099   1.082       .  S
C1088      H1100   1.082       .  S
C1089      C1183   1.450       .  S
C1090      C1182   1.465       .  S
C1091      C1149   1.489       .  S
C1092      C1145   1.486       .  S
N1103      C1108   1.359       .  A
N1103      C1107   1.355       .  A
N1103      H1135   1.037       .  S
N1104      C1111   1.352       .  A
N1104      C1112   1.354       .  A
N1105      C1110   1.356       .  A
N1105      C1109   1.359       .  A
N1105      H1136   1.040       .  S
N1106      C1113   1.357       .  A
N1106      C1114   1.353       .  A
C1107      C1115   1.388       .  A
C1107      C1123   1.421       .  A
C1108      C1124   1.423       .  A
C1108      C1116   1.387       .  A
C1109      C1117   1.386       .  A
C1109      C1126   1.424       .  A
C1110      C1125   1.422       .  A
C1110      C1118   1.387       .  A
C1111      C1123   1.413       .  A
C1111      C1119   1.387       .  A
C1112      C1126   1.413       .  A
C1112      C1120   1.387       .  A
C1113      C1121   1.385       .  A
C1113      C1124   1.418       .  A
C1114      C1122   1.389       .  A
C1114      C1125   1.420       .  A
C1115      C1116   1.381       .  A
C1115      H1127   1.082       .  S
C1116      H1128   1.082       .  S
C1117      C1118   1.378       .  A
C1117      H1129   1.082       .  S
C1118      H1130   1.082       .  S
C1119      C1120   1.367       .  A
C1119      H1131   1.082       .  S
C1120      H1132   1.082       .  S
C1121      C1122   1.373       .  A
C1121      H1133   1.082       .  S
C1122      H1134   1.082       .  S
C1123      C1178   1.454       .  S
C1124      C1179   1.472       .  S
C1125      C1153   1.496       .  S
C1126      C1158   1.505       .  S
C1137      C1138   1.215       .  T
C1139      C1140   1.208       .  T
C1141      C1142   1.205       .  T
C1143      C1144   1.214       .  T
C1145      C1146   1.340       .  D
C1145      H1147   1.088       .  S
C1146      H1148   1.087       .  S
C1149      C1150   1.344       .  D
C1149      H1151   1.087       .  S
C1150      H1152   1.084       .  S
C1153      C1154   1.346       .  D
C1153      H1155   1.086       .  S
C1154      H1156   1.087       .  S
C1157      C1158   1.342       .  D
C1157      H1159   1.086       .  S
C1158      H1160   1.086       .  S
C1161      C1162   1.349       .  D
C1161      H1163   1.087       .  S
C1162      H1164   1.086       .  S
C1162      C1170   1.485       .  S
C1165      C1166   1.340       .  D
C1165      H1167   1.087       .  S
C1166      H1168   1.087       .  S
C1169      C1170   1.356       .  D
C1169      H1171   1.086       .  S
C1170      H1172   1.084       .  S
C1173      C1174   1.346       .  D
C1173      H1175   1.087       .  S
C1174      H1176   1.083       .  S
C1177      C1178   1.209       .  T
C1179      C1180   1.220       .  T
C1181      C1182   1.215       .  T
C1183      C1184   1.206       .  T
C1185      C1186   1.203       .  T
C1187      C1188   1.203       .  T
C1189      C1190   1.202       .  T
C1191      C1192   1.200       .  T
C1193      C1194   1.346       .  D
C1193      H1195   1.086       .  S
C1194      H1196   1.087       .  S
C1197      C1198   1.345       .  D
C1197      H1199   1.087       .  S
C1198      H1200   1.087       .  S
C1201      C1202   1.347       .  D
C1201      H1203   1.086       .  S
C1202      H1204   1.087       .  S
C1205      C1206   1.347       .  D
C1205      H1207   1.086       .  S
C1206      H1208   1.087       .  S
C1209      C1210   1.218       .  T
C1211      C1212   1.219       .  T
C1213      C1214   1.339       .  D
C1213      H1215   1.087       .  S
C1214      H1216   1.087       .  S
C1217      C1218   1.339       .  D
C1217      H1219   1.087       .  S
C1218      H1220   1.087       .  S
C1221      C1222   1.219       .  T
C1223      C1224   1.218       .  T
C1225      C1226   1.337       .  D
C1225      H1227   1.086       .  S
C1226      H1228   1.088       .  S
C1229      C1230   1.340       .  D
C1229      H1231   1.088       .  S
C1230      H1232   1.085       .  S
N1233      C1238   1.359       .  A
N1233      C1237   1.360       .  A
N1233      H1265   1.038       .  S
N1234      C1241   1.355       .  A
N1234      C1242   1.355       .  A
N1235      C1240   1.353       .  A
N1235      C1239   1.352       .  A
N1235      H1266   1.041       .  S
N1236      C1243   1.351       .  A
N1236      C1244   1.353       .  A
C1237      C1245   1.388       .  A
C1237      C1253   1.430       .  A
C1238      C1254   1.429       .  A
C1238      C1246   1.388       .  A
C1239      C1247   1.387       .  A
C1239      C1256   1.414       .  A
C1240      C1255   1.413       .  A
C1240      C1248   1.386       .  A
C1241      C1253   1.416       .  A
C1241      C1249   1.386       .  A
C1242      C1256   1.417       .  A
C1242      C1250   1.388       .  A
C1243      C1251   1.388       .  A
C1243      C1254   1.411       .  A
C1244      C1252   1.387       .  A
C1244      C1255   1.412       .  A
C1245      C1246   1.387       .  A
C1245      H1257   1.082       .  S
C1246      H1258   1.082       .  S
C1247      C1248   1.377       .  A
C1247      H1259   1.082       .  S
C1248      H1260   1.082       .  S
C1249      C1250   1.369       .  A
C1249      H1261   1.082       .  S
C1250      H1262   1.082       .  S
C1251      C1252   1.368       .  A
C1251      H1263   1.082       .  S
C1252      H1264   1.082       .  S
C1253      C1838   1.473       .  S
C1254      C1840   1.463       .  S
C1255      C1845   1.489       .  S
C1256      C1842   1.493       .  S
N1267      C1272   1.354       .  A
N1267      C1271   1.353       .  A
N1267      H1299   1.040       .  S
N1268      C1275   1.357       .  A
N1268      C1276   1.355       .  A
N1269      C1274   1.353       .  A
N1269      C1273   1.351       .  A
N1269      H1300   1.039       .  S
N1270      C1277   1.348       .  A
N1270      C1278   1.349       .  A
C1271      C1279   1.386       .  A
C1271      C1287   1.409       .  A
C1272      C1288   1.415       .  A
C1272      C1280   1.388       .  A
C1273      C1281   1.389       .  A
C1273      C1290   1.411       .  A
C1274      C1289   1.413       .  A
C1274      C1282   1.387       .  A
C1275      C1287   1.423       .  A
C1275      C1283   1.386       .  A
C1276      C1290   1.424       .  A
C1276      C1284   1.387       .  A
C1277      C1285   1.386       .  A
C1277      C1288   1.409       .  A
C1278      C1286   1.386       .  A
C1278      C1289   1.409       .  A
C1279      C1280   1.374       .  A
C1279      H1291   1.083       .  S
C1280      H1292   1.082       .  S
C1281      C1282   1.373       .  A
C1281      H1293   1.083       .  S
C1282      H1294   1.082       .  S
C1283      C1284   1.385       .  A
C1283      H1295   1.082       .  S
C1284      H1296   1.082       .  S
C1285      C1286   1.373       .  A
C1285      H1297   1.082       .  S
C1286      H1298   1.082       .  S
C1287      C1825   1.466       .  S
C1288      C1829   1.487       .  S
C1289      C1833   1.486       .  S
C1290      C1828   1.458       .  S
O1301     Zr1313   2.429       .  S
O1301      C1303   1.286       .  A
O1302     Zr1339   2.423       .  S
O1302      C1303   1.284       .  A
C1303      C1834   1.471       .  S
O1304     Zr1932   2.446       .  S
O1304      C1306   1.290       .  A
O1305     Zr1340   2.430       .  S
O1305      C1306   1.287       .  A
C1306      C1841   1.481       .  S
O1307     Zr1316   2.435       .  S
O1307      C1309   1.288       .  A
O1308     Zr1339   2.428       .  S
O1308      C1309   1.286       .  A
C1309      C1846   1.478       .  S
O1310     Zr1929   2.429       .  S
O1310      C1312   1.287       .  A
O1311     Zr1340   2.433       .  S
O1311      C1312   1.287       .  A
C1312      C1830   1.475       .  S
Zr1313     O1926   2.432       .  S
Zr1313     O1314   2.434       .  S
Zr1313     O1931   2.435       .  S
Zr1313     O1319   2.364       .  S
Zr1313     O1936   2.370       .  S
Zr1313     O1959   2.374       .  S
Zr1313     O1345   2.368       .  S
O1314      H1357   0.990       .  S
O1315     Zr1929   2.434       .  S
O1315      H1972   0.990       .  S
O1315      H1976   0.990       .  S
Zr1316     O1920   2.438       .  S
Zr1316     O1317   2.437       .  S
Zr1316     O1934   2.434       .  S
Zr1316     O1936   2.373       .  S
Zr1316     O1319   2.365       .  S
Zr1316     O1344   2.374       .  S
Zr1316     O1962   2.374       .  S
O1317      H1974   0.990       .  S
O1317      H1361   0.990       .  S
O1318     Zr1932   2.435       .  S
O1318      H1967   0.990   1_545  S
O1319     Zr1339   2.373       .  S
O1320     Zr1929   2.371       .  S
O1320     Zr1932   2.363       .  S
O1320     Zr1340   2.382       .  S
O1320      H1347   0.965       .  S
O1321     Zr1333   2.445   1_545  S
O1321      C1323   1.285       .  A
O1322     Zr1340   2.430       .  S
O1322      C1323   1.288       .  A
C1323      C1817   1.473       .  S
O1324     Zr1952   2.433       .  S
O1324      C1326   1.284       .  A
O1325     Zr1339   2.415       .  S
O1325      C1326   1.286       .  A
C1326      C1813   1.463       .  S
O1327     Zr1336   2.425   1_545  S
O1327      C1329   1.284       .  A
O1328     Zr1340   2.426       .  S
O1328      C1329   1.288       .  A
C1329      C1809   1.465       .  S
O1330     Zr1949   2.428       .  S
O1330      C1332   1.284       .  A
O1331     Zr1339   2.423       .  S
O1331      C1332   1.288       .  A
C1332      C1821   1.465       .  S
Zr1333     O1946   2.427       .  S
Zr1333     O1950   2.439       .  S
Zr1333     O1951   2.435       .  S
Zr1333     O1341   2.370   1_565  S
Zr1333     O1958   2.377       .  S
Zr1333     O1961   2.366       .  S
Zr1333     O1343   2.367   1_565  S
O1334     Zr1949   2.439       .  S
O1334      H1970   0.990       .  S
O1334      H1975   0.990       .  S
O1335     Zr1949   2.433       .  S
O1335      H1971   0.990       .  S
Zr1336     O1940   2.442       .  S
Zr1336     O1337   2.433       .  S
Zr1336     O1954   2.434       .  S
Zr1336     O1958   2.360       .  S
Zr1336     O1341   2.371   1_565  S
Zr1336     O1346   2.377   1_565  S
Zr1336     O1960   2.365       .  S
O1337      H1969   0.991       .  S
O1338     Zr1952   2.435       .  S
O1338      H1968   0.990       .  S
O1338      H1978   0.990       .  S
Zr1339     O1342   2.377       .  S
Zr1339     O1344   2.390       .  S
Zr1339     O1345   2.386       .  S
Zr1340     O1341   2.386       .  S
Zr1340     O1343   2.388       .  S
Zr1340     O1346   2.385       .  S
O1341      H1349   0.967       .  S
O1342     Zr1949   2.367       .  S
O1342     Zr1952   2.370       .  S
O1343     Zr1929   2.374       .  S
O1344     Zr1952   2.373       .  S
O1344      H1348   0.961       .  S
O1345     Zr1949   2.377       .  S
O1345      H1350   0.965       .  S
O1346     Zr1932   2.374       .  S
H1351      O1934   0.990       .  S
H1352      O1954   0.990   1_545  S
H1353      O1953   0.990       .  S
H1354      O1950   0.990       .  S
H1355      O1951   0.990       .  S
H1356      O1931   0.990       .  S
H1358      O1933   0.990       .  S
H1359      O1950   0.991       .  S
H1360      O1931   0.990       .  S
H1362      O1954   0.990       .  S
N1363      C1368   1.351       .  A
N1363      C1367   1.348       .  A
N1363      H1395   1.044       .  S
N1364      C1371   1.342       .  A
N1364      C1372   1.345       .  A
N1365      C1370   1.347       .  A
N1365      C1369   1.351       .  A
N1365      H1396   1.043       .  S
N1366      C1373   1.349       .  A
N1366      C1374   1.347       .  A
C1367      C1375   1.387       .  A
C1367      C1383   1.408       .  A
C1368      C1384   1.412       .  A
C1368      C1376   1.387       .  A
C1369      C1377   1.386       .  A
C1369      C1386   1.409       .  A
C1370      C1385   1.411       .  A
C1370      C1378   1.387       .  A
C1371      C1383   1.399       .  A
C1371      C1379   1.388       .  A
C1372      C1386   1.399       .  A
C1372      C1380   1.385       .  A
C1373      C1381   1.387       .  A
C1373      C1384   1.407       .  A
C1374      C1382   1.388       .  A
C1374      C1385   1.407       .  A
C1375      C1376   1.380       .  A
C1375      H1387   1.082       .  S
C1376      H1388   1.082       .  S
C1377      C1378   1.380       .  A
C1377      H1389   1.082       .  S
C1378      H1390   1.082       .  S
C1379      C1380   1.374       .  A
C1379      H1391   1.083       .  S
C1380      H1392   1.082       .  S
C1381      C1382   1.372       .  A
C1381      H1393   1.082       .  S
C1382      H1394   1.082       .  S
C1383      C1805   1.431       .  S
C1384      C1810   1.489       .  S
C1385      C1814   1.480       .  S
C1386      C1807   1.443       .  S
N1397      C1402   1.350       .  A
N1397      C1401   1.352       .  A
N1397      H1429   1.042       .  S
N1398      C1405   1.347       .  A
N1398      C1406   1.345       .  A
N1399      C1404   1.355       .  A
N1399      C1403   1.352       .  A
N1399      H1430   1.042       .  S
N1400      C1407   1.349       .  A
N1400      C1408   1.350       .  A
C1401      C1409   1.387       .  A
C1401      C1417   1.411       .  A
C1402      C1418   1.414       .  A
C1402      C1410   1.387       .  A
C1403      C1411   1.387       .  A
C1403      C1420   1.414       .  A
C1404      C1419   1.419       .  A
C1404      C1412   1.387       .  A
C1405      C1417   1.402       .  A
C1405      C1413   1.386       .  A
C1406      C1420   1.402       .  A
C1406      C1414   1.388       .  A
C1407      C1415   1.387       .  A
C1407      C1418   1.407       .  A
C1408      C1416   1.387       .  A
C1408      C1419   1.409       .  A
C1409      C1410   1.379       .  A
C1409      H1421   1.082       .  S
C1410      H1422   1.082       .  S
C1411      C1412   1.379       .  A
C1411      H1423   1.082       .  S
C1412      H1424   1.082       .  S
C1413      C1414   1.372       .  A
C1413      H1425   1.083       .  S
C1414      H1426   1.083       .  S
C1415      C1416   1.370       .  A
C1415      H1427   1.082       .  S
C1416      H1428   1.082       .  S
C1417      C1803   1.444       .  S
C1418      C1822   1.485       .  S
C1419      C1818   1.496       .  S
C1420      C1801   1.442       .  S
O1431     Zr1443   2.442       .  S
O1431      C1433   1.287       .  A
O1432      C1433   1.302       .  A
C1433      C1837   1.458       .  S
O1434     Zr1446   2.432       .  S
O1434      C1436   1.285       .  A
O1435      C1436   1.291       .  A
C1436      C1793   1.436       .  S
O1437     Zr1446   2.432       .  S
O1437      C1439   1.285       .  A
O1438      C1439   1.298       .  A
C1439      C1839   1.448       .  S
O1440     Zr1443   2.460       .  S
O1440      C1442   1.290       .  A
O1441      C1442   1.291       .  A
C1442      C1797   1.452       .  S
Zr1443     O1444   2.434       .  S
Zr1443     O1445   2.436       .  S
Zr1443     O1449   2.402       .  S
Zr1443     O1450   2.343       .  S
O1444      H1487   0.990       .  S
O1445      H1486   0.990       .  S
O1445      H1490   0.991       .  S
Zr1446     O1447   2.435       .  S
Zr1446     O1448   2.435       .  S
Zr1446     O2066   2.352       .  S
Zr1446     O2065   2.394       .  S
O1447      H1488   0.990       .  S
O1447      H1491   0.990       .  S
O1448      H1481   0.990       .  S
O1449     Zr2062   2.383   1_545  S
O1450     Zr2062   2.353   1_545  S
O1450      H1477   0.965       .  S
O1451     Zr1463   2.426       .  S
O1451      C1453   1.284       .  A
O1452     Zr1470   2.445       .  S
O1452      C1453   1.291       .  A
C1453      C1800   1.429       .  S
O1454     Zr1466   2.439       .  S
O1454      C1456   1.287       .  A
O1455     Zr2085   2.468       .  S
O1455      C1456   1.296       .  A
C1456      C1827   1.444       .  S
O1457     Zr1466   2.463       .  S
O1457      C1459   1.290       .  A
O1458     Zr2086   2.448       .  S
O1458      C1459   1.291       .  A
C1459      C1796   1.450       .  S
O1460     Zr1463   2.441       .  S
O1460      C1462   1.287       .  A
O1461     Zr1469   2.482   1_545  S
O1461      C1462   1.299       .  A
C1462      C1826   1.452       .  S
Zr1463     O1464   2.435       .  S
Zr1463     O1465   2.433       .  S
Zr1463     O1471   2.353       .  S
Zr1463     O1472   2.388   1_545  S
Zr1463     O1475   2.341       .  S
Zr1463     O1473   2.394       .  S
O1464      H1484   0.990       .  S
O1464      H1489   0.990       .  S
O1465      H1485   0.990       .  S
Zr1466     O1467   2.437       .  S
Zr1466     O1468   2.437       .  S
Zr1466     O2088   2.398       .  S
Zr1466     O2087   2.339       .  S
Zr1466     O1476   2.392       .  S
Zr1466     O1474   2.348       .  S
O1467      H1483   0.990       .  S
O1468      H1482   0.990       .  S
O1468      H1492   0.990       .  S
Zr1469     O2071   2.479       .  S
Zr1469     O1472   2.406       .  S
Zr1469     O2090   2.388       .  S
Zr1469     O1475   2.385   1_565  S
Zr1470     O2074   2.447   1_545  S
Zr1470     O1471   2.386       .  S
Zr1470     O1473   2.392       .  S
Zr1470     O2092   2.394   1_545  S
O1471     Zr2082   2.339   1_545  S
O1471      H1479   0.966       .  S
O1472     Zr2082   2.396       .  S
O1474     Zr2085   2.389       .  S
O1474      H1478   0.961       .  S
O1475      H1480   0.960       .  S
O1476     Zr2086   2.394       .  S
O1493      C1495   1.281       .  A
O1494     Zr1531   2.435       .  S
O1494      C1495   1.288       .  A
C1495      C1782   1.464       .  S
O1496     Zr1508   2.474       .  S
O1496      C1498   1.291       .  A
O1497     Zr1532   2.407       .  S
O1497      C1498   1.284       .  A
C1498      C1785   1.481       .  S
O1499      C1501   1.286       .  A
O1500     Zr1531   2.412       .  S
O1500      C1501   1.283       .  A
C1501      C1789   1.470       .  S
O1502     Zr1505   2.467       .  S
O1502      C1504   1.289       .  A
O1503     Zr1532   2.424       .  S
O1503      C1504   1.282       .  A
C1504      C1777   1.484       .  S
Zr1505     O1506   2.436       .  S
Zr1505     O1507   2.432       .  S
Zr1505     O1512   2.367       .  S
Zr1505     O1535   2.373       .  S
O1507      H1552   0.990       .  S
Zr1508     O1510   2.435       .  S
Zr1508     O1512   2.343       .  S
Zr1508     O1538   2.366       .  S
O1511     Zr1531   2.271       .  S
O1512     Zr1532   2.386       .  S
O1512      H1539   0.958       .  S
O1513     Zr1525   2.459       .  S
O1513      C1515   1.292       .  A
O1514     Zr1532   2.428   1_554  S
O1514      C1515   1.287       .  A
C1515      C1770   1.484       .  S
O1516      C1518   1.280       .  A
O1517     Zr1531   2.438   1_554  S
O1517      C1518   1.288       .  A
C1518      C1766   1.463       .  S
O1519     Zr1528   2.439       .  S
O1519      C1521   1.287       .  A
O1520     Zr1532   2.412   1_554  S
O1520      C1521   1.283       .  A
C1521      C1762   1.463       .  S
O1522      C1524   1.294       .  A
O1523     Zr1531   2.411   1_554  S
O1523      C1524   1.283       .  A
C1524      C1773   1.486       .  S
Zr1525     O1526   2.437       .  S
Zr1525     O1527   2.434       .  S
Zr1525     O1533   2.391       .  S
Zr1525     O1535   2.388   1_554  S
O1526      H1546   0.990       .  S
O1526      H1551   0.990       .  S
O1527      H1547   0.990       .  S
Zr1528     O1529   2.434       .  S
Zr1528     O1530   2.436       .  S
Zr1528     O1533   2.371       .  S
Zr1528     O1538   2.360   1_554  S
O1530      H1544   0.990       .  S
O1530      H1554   0.990       .  S
Zr1531     O1534   2.369   1_556  S
Zr1531     O1536   2.393       .  S
Zr1531     O1537   2.393       .  S
Zr1532     O1533   2.383   1_556  S
Zr1532     O1535   2.390       .  S
Zr1532     O1538   2.381       .  S
O1533      H1541   0.965       .  S
O1536      H1540   0.962       .  S
O1537      H1542   0.964       .  S
N1555      C1560   1.345       .  A
N1555      C1559   1.344       .  A
N1555      H1587   1.045       .  S
N1556      C1563   1.356       .  A
N1556      C1564   1.352       .  A
N1557      C1562   1.358       .  A
N1557      C1561   1.359       .  A
N1557      H1588   1.042       .  S
N1558      C1565   1.395       .  A
N1558      C1566   1.385       .  A
C1559      C1567   1.389       .  A
C1559      C1575   1.399       .  A
C1560      C1576   1.389       .  A
C1560      C1568   1.384       .  A
C1561      C1569   1.388       .  A
C1561      C1578   1.423       .  A
C1562      C1577   1.419       .  A
C1562      C1570   1.388       .  A
C1563      C1575   1.414       .  A
C1563      C1571   1.383       .  A
C1564      C1578   1.420       .  A
C1564      C1572   1.389       .  A
C1565      C1573   1.378       .  A
C1565      C1576   1.410       .  A
C1566      C1574   1.419       .  A
C1566      C1577   1.416       .  A
C1567      C1568   1.377       .  A
C1567      H1579   1.082       .  S
C1568      H1580   1.082       .  S
C1569      C1570   1.375       .  A
C1569      H1581   1.082       .  S
C1570      H1582   1.081       .  S
C1571      C1572   1.379       .  A
C1571      H1583   1.082       .  S
C1572      H1584   1.082       .  S
C1573      C1574   1.328       .  A
C1573      H1585   1.155       .  S
C1574      H1586   1.175       .  S
C1575      C1757   1.446       .  S
C1576      C1610   1.506       .  S
C1577      C1781   1.491       .  S
C1578      C1759   1.463       .  S
N1589      C1594   1.349       .  A
N1589      C1593   1.346       .  A
N1589      H1621   1.044       .  S
N1590      C1597   1.345       .  A
N1590      C1598   1.340       .  A
N1591      C1596   1.349       .  A
N1591      C1595   1.358       .  A
N1591      H1622   1.038       .  S
N1592      C1599   1.351       .  A
N1592      C1600   1.350       .  A
C1593      C1601   1.381       .  A
C1593      C1609   1.393       .  A
C1594      C1610   1.394       .  A
C1594      C1602   1.371       .  A
C1595      C1603   1.387       .  A
C1595      C1612   1.421       .  A
C1596      C1611   1.418       .  A
C1596      C1604   1.388       .  A
C1597      C1609   1.402       .  A
C1597      C1605   1.386       .  A
C1598      C1612   1.404       .  A
C1598      C1606   1.388       .  A
C1599      C1607   1.386       .  A
C1599      C1610   1.415       .  A
C1600      C1608   1.388       .  A
C1600      C1611   1.418       .  A
C1601      C1602   1.371       .  A
C1601      H1613   1.082       .  S
C1602      H1614   1.073       .  S
C1603      C1604   1.384       .  A
C1603      H1615   1.082       .  S
C1604      H1616   1.082       .  S
C1605      C1606   1.379       .  A
C1605      H1617   1.081       .  S
C1606      H1618   1.082       .  S
C1607      C1608   1.382       .  A
C1607      H1619   1.082       .  S
C1608      H1620   1.082       .  S
C1609      C1790   1.481       .  S
C1611      C1754   1.453       .  S
C1612      C1756   1.450       .  S
O1623     Zr1635   2.428       .  S
O1623      C1625   1.283       .  A
O1624      C1625   1.286       .  A
C1625      C1808   1.429       .  S
O1626     Zr2254   2.411       .  S
O1626      C1628   1.280       .  A
O1627     Zr1662   2.438       .  S
O1627      C1628   1.288       .  A
C1628      C1802   1.426       .  S
O1629     Zr1638   2.425       .  S
O1629      C1631   1.283       .  A
O1630     Zr1661   2.430       .  S
O1630      C1631   1.287       .  A
C1631      C1804   1.429       .  S
O1632     Zr2251   2.420   1_545  S
O1632      C1634   1.281       .  A
O1633      C1634   1.284       .  A
C1634      C1806   1.416       .  S
Zr1635     O2248   2.436       .  S
Zr1635     O1636   2.434       .  S
Zr1635     O1637   2.435       .  S
Zr1635     O2281   2.359       .  S
Zr1635     O1667   2.363       .  S
O1636      H1679   0.991       .  S
O1637      H1678   0.990       .  S
O1637      H1682   0.990       .  S
Zr1638     O2242   2.415       .  S
Zr1638     O1639   2.439       .  S
Zr1638     O1640   2.433       .  S
Zr1638     O2258   2.353       .  S
Zr1638     O1641   2.357       .  S
Zr1638     O1666   2.352       .  S
Zr1638     O2284   2.373       .  S
O1639      H1680   0.990       .  S
O1639      H1683   0.990       .  S
O1640      H1673   0.990       .  S
O1641     Zr1661   2.386       .  S
O1642     Zr2254   2.353       .  S
O1642     Zr1662   2.389       .  S
O1642      H1669   0.964       .  S
O1643     Zr2271   2.414   1_545  S
O1643      C1645   1.280       .  A
O1644      C1645   1.291       .  A
C1645      C1755   1.434       .  S
O1646     Zr1658   2.429       .  S
O1646      C1648   1.284       .  A
O1647     Zr1661   2.444       .  S
O1647      C1648   1.289       .  A
C1648      C1758   1.434       .  S
O1649     Zr2274   2.430   1_545  S
O1649      C1651   1.284       .  A
O1650     Zr1662   2.450       .  S
O1650      C1651   1.291       .  A
C1651      C1753   1.440       .  S
O1652     Zr1655   2.419       .  S
O1652      C1654   1.281       .  A
O1653      C1654   1.294       .  A
C1654      C1760   1.444       .  S
Zr1655     O2259   2.411       .  S
Zr1655     O1656   2.435       .  S
Zr1655     O1657   2.436       .  S
Zr1655     O1667   2.377       .  S
Zr1655     O2281   2.373       .  S
O1656      H2292   0.991       .  S
O1656      H1681   0.990       .  S
O1657      H1677   0.991       .  S
Zr1658     O2265   2.432       .  S
Zr1658     O1659   2.435       .  S
Zr1658     O1660   2.437       .  S
Zr1658     O1664   2.381       .  S
Zr1658     O2279   2.376       .  S
Zr1658     O2284   2.372       .  S
Zr1658     O1666   2.371       .  S
O1659      H1675   0.990       .  S
O1660      H1674   0.990       .  S
O1660      H1684   0.990       .  S
Zr1661     O1664   2.389       .  S
Zr1661     O1666   2.390       .  S
Zr1662     O1663   2.392       .  S
Zr1662     O1668   2.384       .  S
O1663     Zr2274   2.375   1_545  S
O1663      H1671   0.966       .  S
O1665     Zr2251   2.351   1_545  S
O1665     Zr2271   2.367   1_545  S
O1666      H1670   0.967       .  S
O1667      H1672   0.962       .  S
O1668     Zr2254   2.364       .  S
O1668     Zr2274   2.371   1_545  S
H1676      O2272   0.990       .  S
N1685      C1690   1.355       .  A
N1685      C1689   1.353       .  A
N1685      H1717   1.039       .  S
N1686      C1693   1.347       .  A
N1686      C1694   1.350       .  A
N1687      C1692   1.353       .  A
N1687      C1691   1.356       .  A
N1687      H1718   1.039       .  S
N1688      C1695   1.357       .  A
N1688      C1696   1.354       .  A
C1689      C1697   1.388       .  A
C1689      C1705   1.416       .  A
C1690      C1706   1.418       .  A
C1690      C1698   1.387       .  A
C1691      C1699   1.385       .  A
C1691      C1708   1.419       .  A
C1692      C1707   1.420       .  A
C1692      C1700   1.390       .  A
C1693      C1705   1.407       .  A
C1693      C1701   1.389       .  A
C1694      C1708   1.404       .  A
C1694      C1702   1.385       .  A
C1695      C1703   1.383       .  A
C1695      C1706   1.416       .  A
C1696      C1704   1.390       .  A
C1696      C1707   1.421       .  A
C1697      C1698   1.381       .  A
C1697      H1709   1.082       .  S
C1698      H1710   1.082       .  S
C1699      C1700   1.365       .  A
C1699      H1711   1.080       .  S
C1700      H1712   1.078       .  S
C1701      C1702   1.369       .  A
C1701      H1713   1.082       .  S
C1702      H1714   1.083       .  S
C1703      C1704   1.374       .  A
C1703      H1715   1.082       .  S
C1704      H1716   1.081       .  S
C1705      C1799   1.445       .  S
C1706      C1798   1.466       .  S
C1707      C1765   1.488       .  S
C1708      C1761   1.490       .  S
N1719      C1724   1.357       .  A
N1719      C1723   1.355       .  A
N1719      H1751   1.036       .  S
N1720      C1727   1.352       .  A
N1720      C1728   1.354       .  A
N1721      C1726   1.356       .  A
N1721      C1725   1.359       .  A
N1721      H1752   1.041       .  S
N1722      C1729   1.355       .  A
N1722      C1730   1.353       .  A
C1723      C1731   1.388       .  A
C1723      C1739   1.421       .  A
C1724      C1740   1.422       .  A
C1724      C1732   1.388       .  A
C1725      C1733   1.386       .  A
C1725      C1742   1.424       .  A
C1726      C1741   1.421       .  A
C1726      C1734   1.386       .  A
C1727      C1739   1.412       .  A
C1727      C1735   1.387       .  A
C1728      C1742   1.414       .  A
C1728      C1736   1.387       .  A
C1729      C1737   1.386       .  A
C1729      C1740   1.417       .  A
C1730      C1738   1.389       .  A
C1730      C1741   1.418       .  A
C1731      C1732   1.381       .  A
C1731      H1743   1.082       .  S
C1732      H1744   1.082       .  S
C1733      C1734   1.378       .  A
C1733      H1745   1.082       .  S
C1734      H1746   1.082       .  S
C1735      C1736   1.369       .  A
C1735      H1747   1.082       .  S
C1736      H1748   1.082       .  S
C1737      C1738   1.372       .  A
C1737      H1749   1.082       .  S
C1738      H1750   1.082       .  S
C1739      C1794   1.453       .  S
C1740      C1795   1.465       .  S
C1741      C1769   1.497       .  S
C1742      C1774   1.506       .  S
C1753      C1754   1.210       .  T
C1755      C1756   1.208       .  T
C1757      C1758   1.206       .  T
C1759      C1760   1.214       .  T
C1761      C1762   1.338       .  D
C1761      H1763   1.088       .  S
C1762      H1764   1.086       .  S
C1765      C1766   1.345       .  D
C1765      H1767   1.086       .  S
C1766      H1768   1.085       .  S
C1769      C1770   1.347       .  D
C1769      H1771   1.086       .  S
C1770      H1772   1.087       .  S
C1773      C1774   1.344       .  D
C1773      H1775   1.086       .  S
C1774      H1776   1.086       .  S
C1777      C1778   1.348       .  D
C1777      H1779   1.086       .  S
C1778      H1780   1.086       .  S
C1778      C1786   1.485       .  S
C1781      C1782   1.337       .  D
C1781      H1783   1.087       .  S
C1782      H1784   1.087       .  S
C1785      C1786   1.356       .  D
C1785      H1787   1.086       .  S
C1786      H1788   1.083       .  S
C1789      C1790   1.346       .  D
C1789      H1791   1.087       .  S
C1790      H1792   1.084       .  S
C1793      C1794   1.208       .  T
C1795      C1796   1.215       .  T
C1797      C1798   1.216       .  T
C1799      C1800   1.204       .  T
C1801      C1802   1.202       .  T
C1803      C1804   1.203       .  T
C1805      C1806   1.196       .  T
C1807      C1808   1.203       .  T
C1809      C1810   1.340       .  D
C1809      H1811   1.084       .  S
C1810      H1812   1.087       .  S
C1813      C1814   1.338       .  D
C1813      H1815   1.086       .  S
C1814      H1816   1.087       .  S
C1817      C1818   1.340       .  D
C1817      H1819   1.084       .  S
C1818      H1820   1.087       .  S
C1821      C1822   1.338       .  D
C1821      H1823   1.086       .  S
C1822      H1824   1.087       .  S
C1825      C1826   1.218       .  T
C1827      C1828   1.213       .  T
C1829      C1830   1.348       .  D
C1829      H1831   1.087       .  S
C1830      H1832   1.086       .  S
C1833      C1834   1.345       .  D
C1833      H1835   1.087       .  S
C1834      H1836   1.086       .  S
C1837      C1838   1.221       .  T
C1839      C1840   1.215       .  T
C1841      C1842   1.347       .  D
C1841      H1843   1.087       .  S
C1842      H1844   1.086       .  S
C1845      C1846   1.345       .  D
C1845      H1847   1.087       .  S
C1846      H1848   1.087       .  S
N1849      C1854   1.360       .  A
N1849      C1853   1.361       .  A
N1849      H1881   1.040       .  S
N1850      C1857   1.352       .  A
N1850      C1858   1.353       .  A
N1851      C1856   1.353       .  A
N1851      C1855   1.352       .  A
N1851      H1882   1.041       .  S
N1852      C1859   1.350       .  A
N1852      C1860   1.354       .  A
C1853      C1861   1.388       .  A
C1853      C1869   1.431       .  A
C1854      C1870   1.431       .  A
C1854      C1862   1.388       .  A
C1855      C1863   1.388       .  A
C1855      C1872   1.411       .  A
C1856      C1871   1.412       .  A
C1856      C1864   1.387       .  A
C1857      C1869   1.412       .  A
C1857      C1865   1.386       .  A
C1858      C1872   1.416       .  A
C1858      C1866   1.386       .  A
C1859      C1867   1.387       .  A
C1859      C1870   1.411       .  A
C1860      C1868   1.385       .  A
C1860      C1871   1.416       .  A
C1861      C1862   1.390       .  A
C1861      H1873   1.082       .  S
C1862      H1874   1.082       .  S
C1863      C1864   1.373       .  A
C1863      H1875   1.082       .  S
C1864      H1876   1.082       .  S
C1865      C1866   1.375       .  A
C1865      H1877   1.082       .  S
C1866      H1878   1.082       .  S
C1867      C1868   1.374       .  A
C1867      H1879   1.082       .  S
C1868      H1880   1.082       .  S
C1869      C2454   1.473       .  S
C1870      C2456   1.468       .  S
C1871      C2461   1.497       .  S
C1872      C2458   1.492       .  S
N1883      C1888   1.356       .  A
N1883      C1887   1.352       .  A
N1883      H1915   1.041       .  S
N1884      C1891   1.358       .  A
N1884      C1892   1.358       .  A
N1885      C1890   1.353       .  A
N1885      C1889   1.351       .  A
N1885      H1916   1.041       .  S
N1886      C1893   1.348       .  A
N1886      C1894   1.348       .  A
C1887      C1895   1.389       .  A
C1887      C1903   1.412       .  A
C1888      C1904   1.415       .  A
C1888      C1896   1.386       .  A
C1889      C1897   1.388       .  A
C1889      C1906   1.409       .  A
C1890      C1905   1.411       .  A
C1890      C1898   1.386       .  A
C1891      C1903   1.428       .  A
C1891      C1899   1.388       .  A
C1892      C1906   1.426       .  A
C1892      C1900   1.387       .  A
C1893      C1901   1.387       .  A
C1893      C1904   1.405       .  A
C1894      C1902   1.387       .  A
C1894      C1905   1.405       .  A
C1895      C1896   1.372       .  A
C1895      H1907   1.082       .  S
C1896      H1908   1.082       .  S
C1897      C1898   1.371       .  A
C1897      H1909   1.082       .  S
C1898      H1910   1.082       .  S
C1899      C1900   1.386       .  A
C1899      H1911   1.082       .  S
C1900      H1912   1.082       .  S
C1901      C1902   1.368       .  A
C1901      H1913   1.082       .  S
C1902      H1914   1.082       .  S
C1903      C2441   1.465       .  S
C1904      C2445   1.485       .  S
C1905      C2449   1.480       .  S
C1906      C2444   1.463       .  S
O1917     Zr1929   2.437   1_565  S
O1917      C1919   1.286       .  A
O1918     Zr1955   2.401       .  S
O1918      C1919   1.284       .  A
C1919      C2450   1.467       .  S
O1920      C1922   1.285       .  A
O1921     Zr1956   2.431       .  S
O1921      C1922   1.289       .  A
C1922      C2457   1.472       .  S
O1923     Zr1932   2.444   1_565  S
O1923      C1925   1.287       .  A
O1924     Zr1955   2.432       .  S
O1924      C1925   1.289       .  A
C1925      C2462   1.476       .  S
O1926      C1928   1.285       .  A
O1927     Zr1956   2.422       .  S
O1927      C1928   1.288       .  A
C1928      C2446   1.472       .  S
Zr1929     O1930   2.434       .  S
Zr1929     O1935   2.371   1_545  S
Zr1929     O1961   2.370   1_545  S
O1930      H1973   0.990       .  S
Zr1932     O1933   2.439       .  S
Zr1932     O1935   2.369   1_545  S
Zr1932     O1960   2.377   1_545  S
O1933      H1977   0.990       .  S
O1935     Zr1955   2.377       .  S
O1936     Zr1956   2.386       .  S
O1936      H1963   0.965       .  S
O1937     Zr1949   2.441       .  S
O1937      C1939   1.288       .  A
O1938     Zr1956   2.438       .  S
O1938      C1939   1.288       .  A
C1939      C2433   1.483       .  S
O1940      C1942   1.289       .  A
O1941     Zr1955   2.428       .  S
O1941      C1942   1.286       .  A
C1942      C2429   1.484       .  S
O1943     Zr1952   2.444       .  S
O1943      C1945   1.289       .  A
O1944     Zr1956   2.415       .  S
O1944      C1945   1.284       .  A
C1945      C2425   1.474       .  S
O1946      C1948   1.286       .  A
O1947     Zr1955   2.420       .  S
O1947      C1948   1.284       .  A
C1948      C2437   1.471       .  S
Zr1949     O1957   2.364       .  S
Zr1949     O1959   2.374       .  S
Zr1952     O1953   2.435       .  S
Zr1952     O1957   2.369       .  S
Zr1952     O1962   2.370       .  S
Zr1955     O1958   2.372       .  S
Zr1955     O1960   2.377       .  S
Zr1955     O1961   2.392       .  S
Zr1956     O1957   2.383       .  S
Zr1956     O1959   2.385       .  S
Zr1956     O1962   2.386       .  S
O1957      H1965   0.965       .  S
O1960      H1964   0.963       .  S
O1961      H1966   0.969       .  S
N1979      C1984   1.351       .  A
N1979      C1983   1.355       .  A
N1979      H2011   1.039       .  S
N1980      C1987   1.349       .  A
N1980      C1988   1.348       .  A
N1981      C1986   1.355       .  A
N1981      C1985   1.356       .  A
N1981      H2012   1.040       .  S
N1982      C1989   1.352       .  A
N1982      C1990   1.353       .  A
C1983      C1991   1.385       .  A
C1983      C1999   1.412       .  A
C1984      C2000   1.417       .  A
C1984      C1992   1.390       .  A
C1985      C1993   1.385       .  A
C1985      C2002   1.413       .  A
C1986      C2001   1.419       .  A
C1986      C1994   1.389       .  A
C1987      C1999   1.405       .  A
C1987      C1995   1.387       .  A
C1988      C2002   1.404       .  A
C1988      C1996   1.387       .  A
C1989      C1997   1.387       .  A
C1989      C2000   1.417       .  A
C1990      C1998   1.385       .  A
C1990      C2001   1.414       .  A
C1991      C1992   1.376       .  A
C1991      H2003   1.082       .  S
C1992      H2004   1.082       .  S
C1993      C1994   1.375       .  A
C1993      H2005   1.082       .  S
C1994      H2006   1.082       .  S
C1995      C1996   1.367       .  A
C1995      H2007   1.082       .  S
C1996      H2008   1.082       .  S
C1997      C1998   1.375       .  A
C1997      H2009   1.082       .  S
C1998      H2010   1.082       .  S
C1999      C2421   1.448       .  S
C2000      C2426   1.489       .  S
C2001      C2430   1.494       .  S
C2002      C2423   1.448       .  S
N2013      C2018   1.349       .  A
N2013      C2017   1.353       .  A
N2013      H2045   1.040       .  S
N2014      C2021   1.345       .  A
N2014      C2022   1.344       .  A
N2015      C2020   1.353       .  A
N2015      C2019   1.355       .  A
N2015      H2046   1.040       .  S
N2016      C2023   1.352       .  A
N2016      C2024   1.353       .  A
C2017      C2025   1.385       .  A
C2017      C2033   1.408       .  A
C2018      C2034   1.414       .  A
C2018      C2026   1.391       .  A
C2019      C2027   1.385       .  A
C2019      C2036   1.412       .  A
C2020      C2035   1.417       .  A
C2020      C2028   1.389       .  A
C2021      C2033   1.399       .  A
C2021      C2029   1.387       .  A
C2022      C2036   1.400       .  A
C2022      C2030   1.388       .  A
C2023      C2031   1.386       .  A
C2023      C2034   1.415       .  A
C2024      C2032   1.386       .  A
C2024      C2035   1.416       .  A
C2025      C2026   1.376       .  A
C2025      H2037   1.083       .  S
C2026      H2038   1.082       .  S
C2027      C2028   1.377       .  A
C2027      H2039   1.082       .  S
C2028      H2040   1.082       .  S
C2029      C2030   1.368       .  A
C2029      H2041   1.082       .  S
C2030      H2042   1.082       .  S
C2031      C2032   1.375       .  A
C2031      H2043   1.082       .  S
C2032      H2044   1.082       .  S
C2033      C2419   1.438       .  S
C2034      C2438   1.485       .  S
C2035      C2434   1.496       .  S
C2036      C2417   1.441       .  S
O2047     Zr2059   2.458       .  S
O2047      C2049   1.289       .  A
O2048      C2049   1.300       .  A
C2049      C2453   1.461       .  S
O2050     Zr2062   2.421       .  S
O2050      C2052   1.283       .  A
O2051      C2052   1.292       .  A
C2052      C2409   1.433       .  S
O2053     Zr2062   2.448       .  S
O2053      C2055   1.288       .  A
O2054      C2055   1.298       .  A
C2055      C2455   1.455       .  S
O2056     Zr2059   2.458       .  S
O2056      C2058   1.290       .  A
O2057      C2058   1.291       .  A
C2058      C2413   1.448       .  S
Zr2059     O2060   2.436       .  S
Zr2059     O2061   2.436       .  S
Zr2059     O2065   2.394       .  S
Zr2059     O2066   2.348       .  S
O2060      H2103   0.990       .  S
O2061      H2102   0.990       .  S
O2061      H2106   0.990       .  S
Zr2062     O2063   2.435       .  S
Zr2062     O2064   2.433       .  S
O2063      H2104   0.990       .  S
O2063      H2107   0.990       .  S
O2064      H2097   0.990       .  S
O2066      H2093   0.965       .  S
O2067     Zr2079   2.423       .  S
O2067      C2069   1.283       .  A
O2068     Zr2086   2.444       .  S
O2068      C2069   1.291       .  A
C2069      C2416   1.430       .  S
O2070     Zr2082   2.434       .  S
O2070      C2072   1.285       .  A
O2071      C2072   1.298       .  A
C2072      C2443   1.449       .  S
O2073     Zr2082   2.451       .  S
O2073      C2075   1.288       .  A
O2074      C2075   1.291       .  A
C2075      C2412   1.446       .  S
O2076     Zr2079   2.434       .  S
O2076      C2078   1.285       .  A
O2077     Zr2085   2.485       .  S
O2077      C2078   1.299       .  A
C2078      C2442   1.452       .  S
Zr2079     O2080   2.436       .  S
Zr2079     O2081   2.432       .  S
Zr2079     O2087   2.349       .  S
Zr2079     O2088   2.386       .  S
Zr2079     O2091   2.342       .  S
Zr2079     O2089   2.395       .  S
O2080      H2100   0.990       .  S
O2080      H2105   0.990       .  S
O2081      H2101   0.990       .  S
Zr2082     O2083   2.433       .  S
Zr2082     O2084   2.436       .  S
Zr2082     O2092   2.391       .  S
Zr2082     O2090   2.347       .  S
O2083      H2099   0.990       .  S
O2084      H2098   0.990       .  S
O2084      H2108   0.990       .  S
Zr2085     O2088   2.407       .  S
Zr2085     O2091   2.385       .  S
Zr2086     O2087   2.384       .  S
Zr2086     O2089   2.393       .  S
O2087      H2095   0.964       .  S
O2090      H2094   0.960       .  S
O2091      H2096   0.962       .  S
O2109      C2111   1.281       .  A
O2110     Zr2147   2.454       .  S
O2110      C2111   1.292       .  A
C2111      C2398   1.471       .  S
O2112     Zr2124   2.474       .  S
O2112      C2114   1.291       .  A
O2113     Zr2148   2.410       .  S
O2113      C2114   1.285       .  A
C2114      C2401   1.482       .  S
O2115      C2117   1.285       .  A
O2116     Zr2147   2.422       .  S
O2116      C2117   1.285       .  A
C2117      C2405   1.476       .  S
O2118     Zr2121   2.461       .  S
O2118      C2120   1.288       .  A
O2119     Zr2148   2.425       .  S
O2119      C2120   1.282       .  A
C2120      C2393   1.483       .  S
Zr2121     O2122   2.436       .  S
Zr2121     O2123   2.433       .  S
Zr2121     O2128   2.366       .  S
Zr2121     O2151   2.361       .  S
O2123      H2168   0.990       .  S
Zr2124     O2126   2.434       .  S
Zr2124     O2128   2.345       .  S
Zr2124     O2154   2.368       .  S
O2127     Zr2147   2.268       .  S
O2128     Zr2148   2.394       .  S
O2128      H2155   0.967       .  S
O2129     Zr2141   2.459       .  S
O2129      C2131   1.293       .  A
O2130     Zr2148   2.432   1_554  S
O2130      C2131   1.288       .  A
C2131      C2386   1.484       .  S
O2132      C2134   1.282       .  A
O2133     Zr2147   2.449   1_554  S
O2133      C2134   1.290       .  A
C2134      C2382   1.467       .  S
O2135     Zr2144   2.449       .  S
O2135      C2137   1.289       .  A
O2136     Zr2148   2.417   1_554  S
O2136      C2137   1.284       .  A
C2137      C2378   1.470       .  S
O2138      C2140   1.295       .  A
O2139     Zr2147   2.403   1_554  S
O2139      C2140   1.282       .  A
C2140      C2389   1.481       .  S
Zr2141     O2142   2.438       .  S
Zr2141     O2143   2.434       .  S
Zr2141     O2149   2.389       .  S
Zr2141     O2151   2.390   1_554  S
O2142      H2162   0.990       .  S
O2142      H2167   0.990       .  S
O2143      H2163   0.990       .  S
Zr2144     O2145   2.435       .  S
Zr2144     O2146   2.435       .  S
Zr2144     O2149   2.361       .  S
Zr2144     O2154   2.364   1_554  S
O2146      H2160   0.990       .  S
O2146      H2170   0.990       .  S
Zr2147     O2150   2.378   1_556  S
Zr2147     O2152   2.393       .  S
Zr2147     O2153   2.394       .  S
Zr2148     O2149   2.381   1_556  S
Zr2148     O2151   2.393       .  S
Zr2148     O2154   2.386       .  S
O2149      H2157   0.965       .  S
O2152      H2156   0.962       .  S
O2153      H2158   0.965       .  S
N2171      C2176   1.343       .  A
N2171      C2175   1.341       .  A
N2171      H2203   1.045       .  S
N2172      C2179   1.358       .  A
N2172      C2180   1.351       .  A
N2173      C2178   1.361       .  A
N2173      C2177   1.359       .  A
N2173      H2204   1.043       .  S
N2174      C2181   1.395       .  A
N2174      C2182   1.386       .  A
C2175      C2183   1.389       .  A
C2175      C2191   1.393       .  A
C2176      C2192   1.387       .  A
C2176      C2184   1.385       .  A
C2177      C2185   1.389       .  A
C2177      C2194   1.424       .  A
C2178      C2193   1.421       .  A
C2178      C2186   1.386       .  A
C2179      C2191   1.412       .  A
C2179      C2187   1.382       .  A
C2180      C2194   1.421       .  A
C2180      C2188   1.391       .  A
C2181      C2189   1.379       .  A
C2181      C2192   1.411       .  A
C2182      C2190   1.415       .  A
C2182      C2193   1.415       .  A
C2183      C2184   1.377       .  A
C2183      H2195   1.082       .  S
C2184      H2196   1.082       .  S
C2185      C2186   1.375       .  A
C2185      H2197   1.082       .  S
C2186      H2198   1.082       .  S
C2187      C2188   1.378       .  A
C2187      H2199   1.082       .  S
C2188      H2200   1.082       .  S
C2189      C2190   1.329       .  A
C2189      H2201   1.154       .  S
C2190      H2202   1.171       .  S
C2191      C2373   1.442       .  S
C2192      C2226   1.510       .  S
C2193      C2397   1.497       .  S
C2194      C2375   1.459       .  S
N2205      C2210   1.350       .  A
N2205      C2209   1.347       .  A
N2205      H2237   1.045       .  S
N2206      C2213   1.350       .  A
N2206      C2214   1.345       .  A
N2207      C2212   1.352       .  A
N2207      C2211   1.356       .  A
N2207      H2238   1.037       .  S
N2208      C2215   1.350       .  A
N2208      C2216   1.350       .  A
C2209      C2217   1.379       .  A
C2209      C2225   1.392       .  A
C2210      C2226   1.395       .  A
C2210      C2218   1.369       .  A
C2211      C2219   1.389       .  A
C2211      C2228   1.423       .  A
C2212      C2227   1.419       .  A
C2212      C2220   1.387       .  A
C2213      C2225   1.408       .  A
C2213      C2221   1.386       .  A
C2214      C2228   1.413       .  A
C2214      C2222   1.389       .  A
C2215      C2223   1.386       .  A
C2215      C2226   1.415       .  A
C2216      C2224   1.388       .  A
C2216      C2227   1.417       .  A
C2217      C2218   1.370       .  A
C2217      H2229   1.083       .  S
C2218      H2230   1.070       .  S
C2219      C2220   1.385       .  A
C2219      H2231   1.082       .  S
C2220      H2232   1.082       .  S
C2221      C2222   1.379       .  A
C2221      H2233   1.081       .  S
C2222      H2234   1.082       .  S
C2223      C2224   1.383       .  A
C2223      H2235   1.082       .  S
C2224      H2236   1.082       .  S
C2225      C2406   1.489       .  S
C2227      C2370   1.456       .  S
C2228      C2372   1.456       .  S
O2239     Zr2251   2.426       .  S
O2239      C2241   1.283       .  A
O2240      C2241   1.288       .  A
C2241      C2424   1.432       .  S
O2242      C2244   1.281       .  A
O2243     Zr2278   2.435       .  S
O2243      C2244   1.288       .  A
C2244      C2418   1.424       .  S
O2245     Zr2254   2.407   1_565  S
O2245      C2247   1.280       .  A
O2246     Zr2277   2.435       .  S
O2246      C2247   1.288       .  A
C2247      C2420   1.422       .  S
O2248      C2250   1.285       .  A
O2249      C2250   1.289       .  A
C2250      C2422   1.431       .  S
Zr2251     O2252   2.434   1_565  S
Zr2251     O2253   2.435       .  S
Zr2251     O2283   2.364       .  S
O2252      H2295   0.991       .  S
O2253      H2294   0.990       .  S
O2253      H2298   0.990   1_565  S
Zr2254     O2255   2.439       .  S
Zr2254     O2256   2.437   1_545  S
Zr2254     O2257   2.359   1_545  S
Zr2254     O2282   2.354   1_545  S
O2255      H2296   0.990       .  S
O2255      H2299   0.990       .  S
O2256      H2289   0.990       .  S
O2257     Zr2277   2.379       .  S
O2258     Zr2278   2.391       .  S
O2258      H2285   0.964       .  S
O2259      C2261   1.279       .  A
O2260      C2261   1.294       .  A
C2261      C2371   1.440       .  S
O2262     Zr2274   2.427       .  S
O2262      C2264   1.284       .  A
O2263     Zr2277   2.440       .  S
O2263      C2264   1.289       .  A
C2264      C2374   1.430       .  S
O2265      C2267   1.284       .  A
O2266     Zr2278   2.451       .  S
O2266      C2267   1.291       .  A
C2267      C2369   1.442       .  S
O2268     Zr2271   2.417       .  S
O2268      C2270   1.280       .  A
O2269      C2270   1.292       .  A
C2270      C2376   1.439       .  S
Zr2271     O2272   2.435   1_565  S
Zr2271     O2273   2.435       .  S
Zr2271     O2283   2.381       .  S
O2272      H2297   0.990   1_545  S
O2273      H2293   0.991       .  S
Zr2274     O2275   2.434       .  S
Zr2274     O2276   2.438   1_565  S
Zr2274     O2280   2.377       .  S
Zr2274     O2282   2.374       .  S
O2275      H2291   0.990       .  S
O2276      H2290   0.990       .  S
O2276      H2300   0.990       .  S
Zr2277     O2280   2.389       .  S
Zr2277     O2282   2.395       .  S
Zr2278     O2279   2.393       .  S
Zr2278     O2284   2.389       .  S
O2279      H2287   0.966       .  S
O2282      H2286   0.965       .  S
O2283      H2288   0.965       .  S
N2301      C2306   1.355       .  A
N2301      C2305   1.355       .  A
N2301      H2333   1.038       .  S
N2302      C2309   1.347       .  A
N2302      C2310   1.350       .  A
N2303      C2308   1.354       .  A
N2303      C2307   1.357       .  A
N2303      H2334   1.039       .  S
N2304      C2311   1.356       .  A
N2304      C2312   1.354       .  A
C2305      C2313   1.387       .  A
C2305      C2321   1.418       .  A
C2306      C2322   1.419       .  A
C2306      C2314   1.388       .  A
C2307      C2315   1.384       .  A
C2307      C2324   1.419       .  A
C2308      C2323   1.421       .  A
C2308      C2316   1.390       .  A
C2309      C2321   1.406       .  A
C2309      C2317   1.389       .  A
C2310      C2324   1.406       .  A
C2310      C2318   1.385       .  A
C2311      C2319   1.385       .  A
C2311      C2322   1.417       .  A
C2312      C2320   1.390       .  A
C2312      C2323   1.422       .  A
C2313      C2314   1.380       .  A
C2313      H2325   1.082       .  S
C2314      H2326   1.082       .  S
C2315      C2316   1.368       .  A
C2315      H2327   1.081       .  S
C2316      H2328   1.077       .  S
C2317      C2318   1.369       .  A
C2317      H2329   1.082       .  S
C2318      H2330   1.082       .  S
C2319      C2320   1.374       .  A
C2319      H2331   1.082       .  S
C2320      H2332   1.082       .  S
C2321      C2415   1.446       .  S
C2322      C2414   1.464       .  S
C2323      C2381   1.491       .  S
C2324      C2377   1.494       .  S
N2335      C2340   1.356       .  A
N2335      C2339   1.354       .  A
N2335      H2367   1.037       .  S
N2336      C2343   1.350       .  A
N2336      C2344   1.352       .  A
N2337      C2342   1.354       .  A
N2337      C2341   1.357       .  A
N2337      H2368   1.041       .  S
N2338      C2345   1.354       .  A
N2338      C2346   1.353       .  A
C2339      C2347   1.388       .  A
C2339      C2355   1.420       .  A
C2340      C2356   1.422       .  A
C2340      C2348   1.388       .  A
C2341      C2349   1.386       .  A
C2341      C2358   1.420       .  A
C2342      C2357   1.418       .  A
C2342      C2350   1.386       .  A
C2343      C2355   1.409       .  A
C2343      C2351   1.387       .  A
C2344      C2358   1.410       .  A
C2344      C2352   1.386       .  A
C2345      C2353   1.386       .  A
C2345      C2356   1.414       .  A
C2346      C2354   1.388       .  A
C2346      C2357   1.416       .  A
C2347      C2348   1.382       .  A
C2347      H2359   1.082       .  S
C2348      H2360   1.082       .  S
C2349      C2350   1.378       .  A
C2349      H2361   1.082       .  S
C2350      H2362   1.082       .  S
C2351      C2352   1.369       .  A
C2351      H2363   1.082       .  S
C2352      H2364   1.082       .  S
C2353      C2354   1.372       .  A
C2353      H2365   1.082       .  S
C2354      H2366   1.082       .  S
C2355      C2410   1.450       .  S
C2356      C2411   1.461       .  S
C2357      C2385   1.495       .  S
C2358      C2390   1.501       .  S
C2369      C2370   1.211       .  T
C2371      C2372   1.211       .  T
C2373      C2374   1.204       .  T
C2375      C2376   1.211       .  T
C2377      C2378   1.342       .  D
C2377      H2379   1.087       .  S
C2378      H2380   1.086       .  S
C2381      C2382   1.345       .  D
C2381      H2383   1.087       .  S
C2382      H2384   1.085       .  S
C2385      C2386   1.347       .  D
C2385      H2387   1.086       .  S
C2386      H2388   1.087       .  S
C2389      C2390   1.343       .  D
C2389      H2391   1.086       .  S
C2390      H2392   1.086       .  S
C2393      C2394   1.347       .  D
C2393      H2395   1.087       .  S
C2394      H2396   1.086       .  S
C2394      C2402   1.484       .  S
C2397      C2398   1.337       .  D
C2397      H2399   1.087       .  S
C2398      H2400   1.087       .  S
C2401      C2402   1.356       .  D
C2401      H2403   1.086       .  S
C2402      H2404   1.085       .  S
C2405      C2406   1.351       .  D
C2405      H2407   1.087       .  S
C2406      H2408   1.084       .  S
C2409      C2410   1.206       .  T
C2411      C2412   1.213       .  T
C2413      C2414   1.215       .  T
C2415      C2416   1.204       .  T
C2417      C2418   1.200       .  T
C2419      C2420   1.199       .  T
C2421      C2422   1.205       .  T
C2423      C2424   1.205       .  T
C2425      C2426   1.343       .  D
C2425      H2427   1.086       .  S
C2426      H2428   1.087       .  S
C2429      C2430   1.348       .  D
C2429      H2431   1.086       .  S
C2430      H2432   1.087       .  S
C2433      C2434   1.349       .  D
C2433      H2435   1.086       .  S
C2434      H2436   1.087       .  S
C2437      C2438   1.343       .  D
C2437      H2439   1.086       .  S
C2438      H2440   1.087       .  S
C2441      C2442   1.218       .  T
C2443      C2444   1.216       .  T
C2445      C2446   1.341       .  D
C2445      H2447   1.087       .  S
C2446      H2448   1.087       .  S
C2449      C2450   1.342       .  D
C2449      H2451   1.087       .  S
C2450      H2452   1.087       .  S
C2453      C2454   1.222       .  T
C2455      C2456   1.219       .  T
C2457      C2458   1.341       .  D
C2457      H2459   1.086       .  S
C2458      H2460   1.087       .  S
C2461      C2462   1.344       .  D
C2461      H2463   1.087       .  S
C2462      H2464   1.085       .  S
