geometry optimzed in LAMMPS
_audit_creation_date              2020-11-30 
_audit_creation_method            'lammps2cif' 
_symmetry_space_group_name_H-M    'P1' 
_symmetry_Int_Tables_number       1 
_symmetry_cell_setting            triclinic 
loop_ 
_symmetry_equiv_pos_as_xyz 
  x,y,z 
_cell_length_a                    28.93566911 
_cell_length_b                    29.17710639716458 
_cell_length_c                    55.57672301300692 
_cell_angle_alpha                 92.20862059374187 
_cell_angle_beta                  88.930243478837 
_cell_angle_gamma                 93.30087776913004 
loop_ 
_atom_site_label 
_atom_site_type_symbol 
_atom_site_fract_x 
_atom_site_fract_y 
_atom_site_fract_z 
_atom_site_charge 
N1          N  0.42491676  0.27332105  0.41317459    -0.34600
N2          N  0.42216601  0.34084822  0.37587794    -0.55100
N3          N  0.43583212  0.27040488  0.33918644    -0.34600
N4          N  0.44244620  0.20301577  0.37701341    -0.55100
C5          C  0.43115833  0.31257717  0.42678611     0.29000
C6          C  0.43212655  0.23789351  0.42737444     0.29000
C7          C  0.44032226  0.30865359  0.32600084     0.29000
C8          C  0.45764937  0.23672030  0.32686029     0.29000
C9          C  0.41345752  0.36783847  0.39548748     0.37600
C10         C  0.41157072  0.36473849  0.35659346     0.37600
C11         C  0.43244492  0.17540866  0.39573188     0.37600
C12         C  0.44725447  0.17531511  0.35712926     0.37600
C13         C  0.44214977  0.30186278  0.45004449    -0.19900
C14         C  0.44224644  0.25466284  0.45047466    -0.19900
C15         C  0.46440982  0.29888138  0.30480249    -0.19900
C16         C  0.47545982  0.25361623  0.30537440    -0.19900
C17         C  0.39704818  0.40909620  0.38864998    -0.20900
C18         C  0.39563363  0.40702498  0.36400517    -0.20900
C19         C  0.43133201  0.12980554  0.38773164    -0.20900
C20         C  0.44124703  0.12971706  0.36337114    -0.20900
C21         C  0.42335316  0.35726605  0.41930714    -0.16300
C22         C  0.42795505  0.19088084  0.42014661    -0.16300
C23         C  0.45951453  0.19052513  0.33374793    -0.16300
C24         C  0.42317631  0.35201399  0.33263857    -0.16300
H25         H  0.44839324  0.32552021  0.46527239     0.16600
H26         H  0.44925175  0.23495248  0.46597150     0.16600
H27         H  0.47352176  0.32206243  0.29050399     0.16600
H28         H  0.49435142  0.23519072  0.29146543     0.16600
H29         H  0.38786574  0.43805361  0.40016169     0.14900
H30         H  0.38588133  0.43430982  0.35280214     0.14900
H31         H  0.42530454  0.09974998  0.39842989     0.14900
H32         H  0.44376117  0.09950089  0.35160340     0.14900
H33         H  0.41116523  0.27030483  0.39604248     0.28200
H34         H  0.41536776  0.26637748  0.35460954     0.28200
N35         N  0.19416727  0.25203910  0.34023101    -0.34600
N36         N  0.20076800  0.32394177  0.37874390    -0.55100
N37         N  0.22766586  0.25654523  0.41216835    -0.34600
N38         N  0.21735311  0.18469763  0.37444319    -0.55100
C39         C  0.17250401  0.28597590  0.32990186     0.29000
C40         C  0.18349209  0.21251993  0.32741327     0.29000
C41         C  0.22416119  0.29339869  0.42750581     0.29000
C42         C  0.22883263  0.21887026  0.42560150     0.29000
C43         C  0.19359031  0.35000068  0.35966458     0.37600
C44         C  0.21477938  0.35303166  0.39714282     0.37600
C45         C  0.21876160  0.15804030  0.35407871     0.37600
C46         C  0.23332594  0.15965255  0.39209054     0.37600
C47         C  0.14850486  0.26790973  0.30996311    -0.19900
C48         C  0.15544401  0.22158999  0.30839955    -0.19900
C49         C  0.22410475  0.27904583  0.45103310    -0.19900
C50         C  0.22683524  0.23206050  0.44982459    -0.19900
C51         C  0.20260282  0.39603104  0.36606730    -0.20900
C52         C  0.21621528  0.39792504  0.38972883    -0.20900
C53         C  0.23577921  0.11588359  0.35879886    -0.20900
C54         C  0.24493352  0.11686803  0.38288443    -0.20900
C55         C  0.17585828  0.33310249  0.33717461    -0.16300
C56         C  0.19931744  0.16879270  0.33211739    -0.16300
C57         C  0.23443851  0.17338072  0.41666807    -0.16300
C58         C  0.22344238  0.33977906  0.42089893    -0.16300
H59         H  0.12817880  0.28620033  0.29773329     0.16600
H60         H  0.14138502  0.19737485  0.29481377     0.16600
H61         H  0.22240661  0.30022003  0.46741533     0.16600
H62         H  0.22791760  0.21019704  0.46507863     0.16600
H63         H  0.19936013  0.42523930  0.35490981     0.14900
H64         H  0.22539015  0.42885964  0.40036275     0.14900
H65         H  0.23986918  0.08691023  0.34633569     0.14900
H66         H  0.25788841  0.08891655  0.39256200     0.14900
H67         H  0.21843929  0.25641342  0.35377585     0.28200
H68         H  0.23393575  0.25775361  0.39378223     0.28200
O69         O  0.39902936  0.46271337  0.48772077    -0.78100
O70         O  0.38702310  0.07551221  0.52748581    -0.78100
O71         O  0.37313641  0.06301783  0.47099841    -0.78100
O72         O  0.33277841  0.46888218  0.56266330    -0.78100
O73         O  0.35952173  0.12817307  0.49076617    -0.78200
O74         O  0.39011193  0.45635391  0.53702496    -0.78100
O75         O  0.33685457  0.06224573  0.55745251    -0.78100
O76         O  0.35308141  0.47381700  0.45820935    -0.78100
C77         C  0.38966508  0.45813589  0.46575038     1.11600
C78         C  0.37407238  0.08220287  0.54923081     1.11500
C79         C  0.37860910  0.10735840  0.47317575     1.11600
C80         C  0.37216793  0.45338096  0.55785019     1.11500
O81         O  0.30170947  0.40830392  0.53134068    -0.78100
O82         O  0.28016688  0.07900907  0.48161854    -0.78200
O83         O  0.26148135  0.47230165  0.47689201    -0.78100
O84         O  0.24898971  0.05041790  0.53142400    -0.78100
O85         O  0.29774843  0.10829205  0.52732025    -0.78100
O86         O  0.30739853  0.41569574  0.48254294    -0.78100
O87         O  0.24839492  0.45874894  0.53612567    -0.78100
O88         O  0.29474521  0.04055614  0.44746025    -0.78100
Co89       Co  0.34914633  0.44029160  0.50961683     1.51500
Co90       Co  0.33648456  0.07196833  0.50404746     1.51700
Co91       Co  0.31460738  0.01791713  0.47688692     1.51600
Co92       Co  0.29272796  0.01008100  0.54485553     1.51500
O93         O  0.32413412  0.00467668  0.51190148    -1.40000
C94         C  0.26141909  0.41871071  0.53822264     1.11500
C95         C  0.27633283  0.07371659  0.45857630     1.11600
C96         C  0.27121605  0.43068196  0.47351254     1.11500
C97         C  0.25993498  0.09184644  0.53580474     1.11500
N98         N  0.42304600  0.26649095  0.67961036    -0.34600
N99         N  0.40823681  0.33963316  0.64750705    -0.55100
N100        N  0.41182215  0.27262894  0.60632411    -0.34600
N101        N  0.42129350  0.19915048  0.63921187    -0.55100
C102        C  0.41348572  0.30020896  0.69602485     0.29000
C103        C  0.42426102  0.22712860  0.69147300     0.29000
C104        C  0.40043611  0.31071281  0.59508631     0.29000
C105        C  0.40323819  0.23567991  0.59104847     0.29000
C106        C  0.41584945  0.36508404  0.66811508     0.37600
C107        C  0.41249193  0.36895301  0.62923055     0.37600
C108        C  0.43642243  0.17267053  0.65647948     0.37600
C109        C  0.42451364  0.17440253  0.61825849     0.37600
C110        C  0.90813808  0.28183413  0.71864610    -0.19900
C111        C  0.91514646  0.23566571  0.71577635    -0.19900
C112        C  0.38537343  0.29792229  0.57208463    -0.19900
C113        C  0.38698937  0.25073323  0.56958890    -0.19900
C114        C  0.42399747  0.41095669  0.66294036    -0.20900
C115        C  0.42176514  0.41342731  0.63835682    -0.20900
C116        C  0.44839074  0.13055132  0.64652770    -0.20900
C117        C  0.44038892  0.13148196  0.62235934    -0.20900
C118        C  0.41511184  0.34759827  0.69154704    -0.16300
C119        C  0.43758619  0.18485255  0.68125780    -0.16300
C120        C  0.41175359  0.18917495  0.59557943    -0.16300
C121        C  0.40539408  0.35678274  0.60458345    -0.16300
H122        H  0.90145902  0.30008255  0.73557135     0.16600
H123        H  0.91461796  0.21133662  0.73001522     0.16600
H124        H  0.37442606  0.32027018  0.55843947     0.16600
H125        H  0.37772579  0.22995873  0.55366411     0.16600
H126        H  0.43100353  0.43964326  0.67553081     0.14900
H127        H  0.42650579  0.44448189  0.62834030     0.14900
H128        H  0.46097995  0.10184246  0.65573967     0.14900
H129        H  0.44612107  0.10386110  0.60927508     0.14900
H130        H  0.43519921  0.27098724  0.66216674     0.28200
H131        H  0.42875166  0.27278178  0.62257387     0.28200
N132        N  0.14189126  0.25265865  0.66254228    -0.34600
N133        N  0.16383831  0.31996975  0.62487147    -0.55100
N134        N  0.20385442  0.24930013  0.59611595    -0.34600
N135        N  0.18605467  0.18209373  0.63367740    -0.55100
C136        C  0.12762847  0.29168620  0.67378459     0.29000
C137        C  0.14211632  0.21919338  0.67901361     0.29000
C138        C  0.22146120  0.28667164  0.58472158     0.29000
C139        C  0.22847946  0.21379994  0.58832022     0.29000
C140        C  0.13569371  0.34501579  0.63902742     0.37600
C141        C  0.17168703  0.34324113  0.60444436     0.37600
C142        C  0.16973037  0.15560218  0.65172521     0.37600
C143        C  0.19630011  0.15337345  0.61491322     0.37600
C144        C  0.11754687  0.28259642  0.69772002    -0.19900
C145        C  0.12664882  0.23717734  0.70099253    -0.19900
C146        C  0.25823431  0.27482033  0.56981988    -0.19900
C147        C  0.26247490  0.22857766  0.57198423    -0.19900
C148        C  0.12584896  0.38471540  0.62749680    -0.20900
C149        C  0.14872644  0.38355091  0.60559629    -0.20900
C150        C  0.17112996  0.10954274  0.64458877    -0.20900
C151        C  0.18744569  0.10817926  0.62113288    -0.20900
C152        C  0.12191643  0.33472126  0.66290365    -0.16300
C153        C  0.15357573  0.17239161  0.67446798    -0.16300
C154        C  0.21662287  0.16775934  0.59299682    -0.16300
C155        C  0.20213741  0.32982262  0.58572301    -0.16300
H156        H  0.10453535  0.30613091  0.71141841     0.16600
H157        H  0.12180869  0.21929039  0.71763452     0.16600
H158        H  0.27884425  0.29681850  0.55801989     0.16600
H159        H  0.28692829  0.20786846  0.56218263     0.16600
H160        H  0.10484608  0.41204268  0.63428331     0.14900
H161        H  0.14897004  0.40959455  0.59223399     0.14900
H162        H  0.16063558  0.08001115  0.65500474     0.14900
H163        H  0.19299899  0.07753124  0.61010626     0.14900
H164        H  0.14787745  0.24857838  0.64422003     0.28200
H165        H  0.17242990  0.24616122  0.60545795     0.28200
O166        O  0.01343632  0.45411998  0.30124145    -0.78100
O167        O  0.09445746  0.51823516  0.20745865    -0.78100
O168        O  0.47921452  0.45174556  0.24204092    -0.78100
O169        O  0.12709568  0.43039085  0.27241214    -0.78100
O170        O  0.01381341  0.48213547  0.21289066    -0.78200
O171        O  0.10710867  0.46247034  0.30739700    -0.78100
O172        O  0.11477883  0.45745191  0.22573150    -0.78100
O173        O  0.45943312  0.48905345  0.28229988    -0.78100
C174        C  0.47177911  0.45676678  0.29534682     1.11600
C175        C  0.11695038  0.48195268  0.20748775     1.11500
C176        C  0.48418210  0.45260596  0.21989148     1.11600
C177        C  0.12406379  0.42983925  0.29512935     1.11500
O178        O  0.10196638  0.05984926  0.30054074    -0.78100
O179        O  0.00810701  0.07076963  0.21431333    -0.78200
O180        O  0.51076333  0.07808535  0.26929571    -0.78100
O181        O  0.14869721  0.04927646  0.23973101    -0.78100
O182        O  0.08596090  0.08804197  0.24421980    -0.78100
O183        O  0.00913697  0.05051430  0.30474305    -0.78100
O184        O  0.16068587  0.02349675  0.28528398    -0.78100
O185        O  0.45005903  0.04136705  0.23768360    -0.78100
Co186      Co  0.05858962  0.50626835  0.30047960     1.51500
Co187      Co  0.04679463  0.53326214  0.23336551     1.51700
Co188      Co  0.49978959  0.51414332  0.25490385     1.51600
Co189      Co  0.13309641  0.48966984  0.25609637     1.51500
O190        O  0.06386367  0.49725802  0.26346475    -1.40000
C191        C  0.14443084  0.05824470  0.29608623     1.11500
C192        C  0.46479548  0.06694624  0.22039260     1.11600
C193        C  0.50405626  0.08364211  0.29159321     1.11500
C194        C  0.12811647  0.08615382  0.23780383     1.11500
O195        O  0.44484039  0.16285431  0.98850092    -0.78100
O196        O  0.10358594  0.18199395  0.03197921    -0.78100
O197        O  0.09832810  0.16914926  0.98068661    -0.78100
O198        O  0.99745483  0.21534991  0.05859120    -0.78100
O199        O  0.16449592  0.19973434  0.99523322    -0.78200
O200        O  0.49680528  0.16129465  0.02956793    -0.78100
O201        O  0.09172323  0.23506045  0.06010453    -0.78100
O202        O  0.00632866  0.17944787  0.96360512    -0.78100
C203        C  0.46661958  0.15750696  0.96839322     1.11600
C204        C  0.10904536  0.19786245  0.05321425     1.11500
C205        C  0.14312745  0.16995322  0.98161323     1.11600
C206        C  0.48461947  0.17516875  0.05057999     1.11500
O207        O  0.44030231  0.23718821  0.02660139    -0.78100
O208        O  0.12174895  0.26948112  0.97712625    -0.78200
O209        O  0.02629699  0.28046963  0.96687597    -0.78100
O210        O  0.08240808  0.31779880  0.03559340    -0.78100
O211        O  0.14115807  0.27485343  0.02629371    -0.78100
O212        O  0.46245410  0.24999659  0.98170593    -0.78100
O213        O  0.98764394  0.29798908  0.03353010    -0.78100
O214        O  0.09111420  0.22914552  0.94594098    -0.78100
Co215      Co  0.48573876  0.20521692  0.00438746     1.51500
Co216      Co  0.10822940  0.22552040  0.00542449     1.51700
Co217      Co  0.05980669  0.22641382  0.97638705     1.51600
Co218      Co  0.03999441  0.26623714  0.04527643     1.51500
O219        O  0.04293435  0.23962473  0.01143442    -1.40000
C220        C  0.44872102  0.27711624  0.03637608     1.11500
C221        C  0.12126325  0.25892889  0.95424610     1.11600
C222        C  0.48285246  0.27832652  0.96819078     1.11500
C223        C  0.12533997  0.31184379  0.03522623     1.11500
N224        N  0.31175256  0.32506330  0.90993584    -0.34600
N225        N  0.38811000  0.34013823  0.87627898    -0.55100
N226        N  0.32292154  0.36503561  0.83968506    -0.34600
N227        N  0.24626087  0.34461507  0.87227504    -0.55100
C228        C  0.34729745  0.31133549  0.92297950     0.29000
C229        C  0.27191140  0.30590029  0.91932152     0.29000
C230        C  0.36147343  0.36113087  0.82571599     0.29000
C231        C  0.28722270  0.37209542  0.82507729     0.29000
C232        C  0.41290746  0.33857969  0.89662525     0.37600
C233        C  0.41848133  0.35207204  0.85850507     0.37600
C234        C  0.21593239  0.33524989  0.89046282     0.37600
C235        C  0.22254154  0.36503353  0.85528210     0.37600
C236        C  0.32979194  0.28394782  0.94123916    -0.19900
C237        C  0.28236045  0.28023341  0.93883633    -0.19900
C238        C  0.35003589  0.36604041  0.80181705    -0.19900
C239        C  0.30333364  0.37335226  0.80145646    -0.19900
C240        C  0.45933992  0.34920146  0.89171162    -0.20900
C241        C  0.46292705  0.35744854  0.86758787    -0.20900
C242        C  0.17239389  0.34870792  0.88474771    -0.20900
C243        C  0.17665541  0.36793947  0.86260132    -0.20900
C244        C  0.39498597  0.32335374  0.91896260    -0.16300
C245        C  0.22631469  0.31296297  0.91168944    -0.16300
C246        C  0.24089581  0.37864329  0.83267126    -0.16300
C247        C  0.40718142  0.35726155  0.83409234    -0.16300
H248        H  0.34919953  0.26778877  0.95471232     0.16600
H249        H  0.25828317  0.26104597  0.95031649     0.16600
H250        H  0.37314246  0.36549471  0.78627477     0.16600
H251        H  0.28348374  0.37879806  0.78560321     0.16600
H252        H  0.48783920  0.34994221  0.90408808     0.14900
H253        H  0.49472346  0.36650048  0.85788689     0.14900
H254        H  0.14084872  0.34522808  0.89546262     0.14900
H255        H  0.14886668  0.38165818  0.85283588     0.14900
H256        H  0.31433948  0.34974460  0.89700263     0.28200
H257        H  0.32193029  0.36796597  0.85828098     0.28200
N258        N  0.29032741  0.11076978  0.84166111    -0.34600
N259        N  0.36411917  0.09278552  0.87459516    -0.55100
N260        N  0.30107070  0.10680664  0.91482354    -0.34600
N261        N  0.22644878  0.12105104  0.88283117    -0.55100
C262        C  0.32108057  0.09107237  0.82623809     0.29000
C263        C  0.24898168  0.10991949  0.83051413     0.29000
C264        C  0.33871789  0.09361715  0.92608958     0.29000
C265        C  0.26490451  0.10260344  0.93048277     0.29000
C266        C  0.38839355  0.09382439  0.85363554     0.37600
C267        C  0.39540986  0.09946820  0.89233459     0.37600
C268        C  0.19950174  0.13541667  0.86532455     0.37600
C269        C  0.20478211  0.13050138  0.90410377     0.37600
C270        C  0.29918088  0.07830833  0.80485248    -0.19900
C271        C  0.25381871  0.09022869  0.80750757    -0.19900
C272        C  0.32650438  0.08032490  0.94912817    -0.19900
C273        C  0.27970373  0.08565359  0.95185571    -0.19900
C274        C  0.43544968  0.09980098  0.85812806    -0.20900
C275        C  0.43982391  0.10393948  0.88268122    -0.20900
C276        C  0.16012823  0.15368237  0.87553568    -0.20900
C277        C  0.16354309  0.15069501  0.90008782    -0.20900
C278        C  0.36883807  0.08663589  0.83062678    -0.16300
C279        C  0.20738015  0.12728893  0.84033534    -0.16300
C280        C  0.22064163  0.11890919  0.92693319    -0.16300
C281        C  0.38436080  0.09922562  0.91711212    -0.16300
H282        H  0.31434021  0.06221957  0.78894846     0.16600
H283        H  0.22735774  0.08472548  0.79402505     0.16600
H284        H  0.34925181  0.06923257  0.96273620     0.16600
H285        H  0.25930628  0.07957658  0.96806241     0.16600
H286        H  0.46370122  0.10142567  0.84509851     0.14900
H287        H  0.47199966  0.10876476  0.89232411     0.14900
H288        H  0.13146994  0.16689331  0.86623669     0.14900
H289        H  0.13820871  0.16144103  0.91340217     0.14900
H290        H  0.29799538  0.12768005  0.85802316     0.28200
H291        H  0.30197310  0.12475151  0.89903215     0.28200
O292        O  0.10903214  0.44625449  0.72500855    -0.78100
O293        O  0.07196479  0.09765734  0.78558427    -0.78100
O294        O  0.08663506  0.04462905  0.71515630    -0.78100
O295        O  0.10929485  0.45167355  0.80625507    -0.78100
O296        O  0.11487845  0.07944114  0.74573063    -0.78200
O297        O  0.13989152  0.43341822  0.77062117    -0.78100
O298        O  0.10918459  0.04471453  0.80347848    -0.78100
O299        O  0.04637484  0.46347120  0.70709423    -0.78100
C300        C  0.08343750  0.44197969  0.70692492     1.11600
C301        C  0.10369853  0.08621470  0.79953933     1.11500
C302        C  0.11524333  0.07460881  0.72349135     1.11600
C303        C  0.14203469  0.43593209  0.79331179     1.11500
O304        O  0.04909073  0.39487490  0.78390111    -0.78100
O305        O  0.02475292  0.10766742  0.73896353    -0.78200
O306        O  0.97839579  0.47226686  0.74399372    -0.78100
O307        O  0.00996484  0.04186628  0.80458834    -0.78100
O308        O  0.98698915  0.04559985  0.76788889    -0.78100
O309        O  0.01787570  0.40986402  0.73956937    -0.78100
O310        O  0.00878451  0.45025952  0.79931243    -0.78100
O311        O  0.99621307  0.05025952  0.71433839    -0.78100
Co312      Co  0.07919104  0.42577092  0.75506507     1.51500
Co313      Co  0.05177663  0.05802426  0.75623678     1.51700
Co314      Co  0.03333242  0.51114879  0.73363889     1.51600
Co315      Co  0.05987920  0.49656498  0.80065909     1.51500
O316        O  0.06916547  0.49371251  0.76390958    -1.40000
C317        C  0.51383007  0.40841895  0.79537729     1.11500
C318        C  0.49941409  0.09323716  0.72102822     1.11600
C319        C  0.48005561  0.42974052  0.73890702     1.11500
C320        C  0.47831871  0.04831877  0.79004824     1.11500
N321        N  0.28912937  0.13246350  0.17508350    -0.34600
N322        N  0.21887008  0.14949552  0.14203474    -0.55100
N323        N  0.28876994  0.14257151  0.10151022    -0.34600
N324        N  0.35921991  0.13007023  0.13553874    -0.55100
C325        C  0.25472653  0.14228950  0.19100183     0.29000
C326        C  0.32857162  0.13248717  0.18758288     0.29000
C327        C  0.25229678  0.15864368  0.09024542     0.29000
C328        C  0.32708061  0.14960975  0.08718289     0.29000
C329        C  0.19123947  0.14290487  0.16177196     0.37600
C330        C  0.19084785  0.14865707  0.12284809     0.37600
C331        C  0.38400294  0.11523857  0.15366144     0.37600
C332        C  0.38468001  0.12325531  0.11522221     0.37600
C333        C  0.27267106  0.14859536  0.21392092    -0.19900
C334        C  0.31932087  0.14246347  0.21176616    -0.19900
C335        C  0.26736913  0.17508816  0.06811874    -0.19900
C336        C  0.31443530  0.16947684  0.06624093    -0.19900
C337        C  0.14529222  0.13884851  0.15516707    -0.20900
C338        C  0.14497686  0.14264091  0.13056514    -0.20900
C339        C  0.42558194  0.09923034  0.14482851    -0.20900
C340        C  0.42610756  0.10461733  0.12047872    -0.20900
C341        C  0.20716891  0.14165582  0.18568548    -0.16300
C342        C  0.37150425  0.11900509  0.17823758    -0.16300
C343        C  0.37266235  0.13718466  0.09234689    -0.16300
C344        C  0.20547515  0.15660236  0.09876002    -0.16300
H345        H  0.25394349  0.15586837  0.23054392     0.16600
H346        H  0.34348249  0.14393434  0.22645077     0.16600
H347        H  0.24662103  0.18972258  0.05467620     0.16600
H348        H  0.33674363  0.17887827  0.05115732     0.16600
H349        H  0.11519763  0.13387944  0.16683833     0.14900
H350        H  0.11435446  0.14128188  0.11961216     0.14900
H351        H  0.45316187  0.08589985  0.15491230     0.14900
H352        H  0.45392588  0.09610841  0.10810309     0.14900
H353        H  0.28533203  0.11980937  0.15750211     0.28200
H354        H  0.28619011  0.12386916  0.11702980     0.28200
N355        N  0.29430862  0.35681707  0.09384281    -0.34600
N356        N  0.36633988  0.37116704  0.13084130    -0.55100
N357        N  0.30416564  0.42668591  0.15901920    -0.34600
N358        N  0.23186397  0.40885421  0.12183971    -0.55100
C359        C  0.32486442  0.32595793  0.08648605     0.29000
C360        C  0.25485057  0.34605719  0.08168350     0.29000
C361        C  0.33857771  0.42341682  0.17520602     0.29000
C362        C  0.26568194  0.43975388  0.17125436     0.29000
C363        C  0.39126447  0.35173600  0.11268803     0.37600
C364        C  0.39685395  0.38787655  0.14768536     0.37600
C365        C  0.20621358  0.40335005  0.10169984     0.37600
C366        C  0.20962916  0.43759358  0.13696830     0.37600
C367        C  0.30461957  0.29507240  0.06960930    -0.19900
C368        C  0.26036130  0.30764986  0.06663391    -0.19900
C369        C  0.32201812  0.43608553  0.19792311    -0.19900
C370        C  0.27620177  0.44599921  0.19548452    -0.19900
C371        C  0.43787415  0.35520778  0.11821603    -0.20900
C372        C  0.44140351  0.37788909  0.14041260    -0.20900
C373        C  0.16746460  0.42890066  0.10391558    -0.20900
C374        C  0.16949218  0.45053500  0.12631256    -0.20900
C375        C  0.37213738  0.32888602  0.09185870    -0.16300
C376        C  0.21518233  0.37177702  0.08260460    -0.16300
C377        C  0.22183177  0.44772411  0.16117278    -0.16300
C378        C  0.38463296  0.41000899  0.16996330    -0.16300
H379        H  0.32066906  0.26731498  0.05978274     0.16600
H380        H  0.23557594  0.29099155  0.05432542     0.16600
H381        H  0.34080549  0.43747060  0.21461684     0.16600
H382        H  0.25328369  0.45681849  0.20996431     0.16600
H383        H  0.46625744  0.34218524  0.10753404     0.14900
H384        H  0.47312367  0.38600927  0.15009064     0.14900
H385        H  0.13991318  0.43049544  0.09111744     0.14900
H386        H  0.14370423  0.47236438  0.13411300     0.14900
H387        H  0.30256884  0.38715212  0.10361667     0.28200
H388        H  0.30763748  0.42380752  0.14042095     0.28200
C389        C  0.13529132  0.11861033  0.81174858    -0.11200
C390        C  0.16802795  0.12914753  0.82445124    -0.12800
C391        C  0.40037037  0.07280661  0.81119596    -0.11200
C392        C  0.43358810  0.06121728  0.79927786    -0.12800
C393        C  0.20971155  0.39929746  0.81635513    -0.11200
C394        C  0.18051565  0.41691613  0.80498205    -0.12800
C395        C  0.47889130  0.37753925  0.80542427    -0.11200
C396        C  0.44565586  0.36381923  0.81711397    -0.12800
C397        C  0.14025731  0.17729840  0.06875191    -0.11200
C398        C  0.16979373  0.16595364  0.08195796    -0.12800
C399        C  0.41075153  0.14293003  0.07470153    -0.11200
C400        C  0.44597734  0.15210812  0.06310000    -0.12800
C401        C  0.15522647  0.34311646  0.04921588    -0.11200
C402        C  0.18085488  0.36105927  0.06417099    -0.12800
C403        C  0.42030628  0.29379469  0.05565052    -0.11200
C404        C  0.40155566  0.30915838  0.07345072    -0.12800
C405        C  0.18746619  0.29570273  0.92640960    -0.11200
C406        C  0.15564810  0.28019923  0.93857891    -0.12800
C407        C  0.45515759  0.30314721  0.95231668    -0.11200
C408        C  0.42792370  0.31478057  0.93769319    -0.12800
C409        C  0.16887174  0.14191676  0.96494799    -0.11200
C410        C  0.19166912  0.12773604  0.94809805    -0.12800
C411        C  0.44462274  0.12916075  0.94980220    -0.11200
C412        C  0.42020336  0.11115400  0.93441604    -0.12800
C413        C  0.45123147  0.42941535  0.20302760    -0.11200
C414        C  0.42094369  0.41879349  0.18833703    -0.12800
C415        C  0.18478247  0.46350896  0.17689046    -0.11200
C416        C  0.15187657  0.47301395  0.18945421    -0.12800
C417        C  0.43251731  0.09018138  0.20739643    -0.11200
C418        C  0.40467543  0.10595171  0.19503160    -0.12800
C419        C  0.15045981  0.11979586  0.22227863    -0.06400
C420        C  0.17404092  0.13486795  0.20571193    -0.12800
C421        C  0.13775304  0.10851815  0.70784748    -0.11200
C422        C  0.14660547  0.13876100  0.69356017    -0.12800
C423        C  0.10370665  0.37255773  0.67740287    -0.11200
C424        C  0.09248289  0.40600645  0.68922575    -0.12800
C425        C  0.47467759  0.12529655  0.70843089    -0.11200
C426        C  0.45558781  0.15243803  0.69700694    -0.12800
C427        C  0.42367368  0.37958480  0.71190860    -0.11200
C428        C  0.44237969  0.40474449  0.72699437    -0.12800
C429        C  0.40486542  0.15329600  0.57664543    -0.11200
C430        C  0.39533294  0.11993522  0.56353969    -0.12800
C431        C  0.40012831  0.39408742  0.58831080    -0.11200
C432        C  0.39147620  0.42401325  0.57485941    -0.12800
C433        C  0.22618482  0.13516894  0.57369690    -0.11200
C434        C  0.23801575  0.11503438  0.55555549    -0.12800
C435        C  0.23374387  0.38713415  0.55247294    -0.11200
C436        C  0.21640492  0.36187950  0.56726920    -0.12800
C437        C  0.17361022  0.09631844  0.30476326    -0.11200
C438        C  0.18872045  0.13065254  0.31528920    -0.12800
C439        C  0.15847281  0.36576370  0.32086075    -0.11200
C440        C  0.14293067  0.39340289  0.30796216    -0.12800
C441        C  0.25412744  0.10740687  0.44554975    -0.11200
C442        C  0.24281939  0.13822139  0.43351229    -0.12800
C443        C  0.23303044  0.37516167  0.43976482    -0.11200
C444        C  0.24620062  0.40157585  0.45593716    -0.12800
C445        C  0.47546320  0.15669026  0.31586491    -0.11200
C446        C  0.48879951  0.12588691  0.30268892    -0.12800
C447        C  0.42683058  0.38858324  0.31550302    -0.11200
C448        C  0.43981321  0.42176931  0.30432094    -0.12800
C449        C  0.40386555  0.13325374  0.45495228    -0.11200
C450        C  0.41798112  0.15768830  0.43887619    -0.12800
C451        C  0.41324091  0.42605340  0.45068808    -0.11200
C452        C  0.42217772  0.39443692  0.43721633    -0.12800
N453        N  0.42495076  0.77305373  0.41311938    -0.34600
N454        N  0.42158160  0.84060036  0.37586432    -0.55100
N455        N  0.43479614  0.77016128  0.33907438    -0.34600
N456        N  0.44195169  0.70274587  0.37687719    -0.55100
C457        C  0.43137669  0.81232777  0.42670182     0.29000
C458        C  0.43264055  0.73766548  0.42726258     0.29000
C459        C  0.43937602  0.80846585  0.32592218     0.29000
C460        C  0.45644979  0.73643659  0.32667963     0.29000
C461        C  0.41309664  0.86759394  0.39550591     0.37600
C462        C  0.41106446  0.86462614  0.35661206     0.37600
C463        C  0.43255052  0.67513241  0.39565732     0.37600
C464        C  0.44665800  0.67502893  0.35699218     0.37600
C465        C  0.44305302  0.80166575  0.44986678    -0.19900
C466        C  0.44335152  0.75447592  0.45028097    -0.19900
C467        C  0.46330652  0.79866757  0.30468029    -0.19900
C468        C  0.47418202  0.75335081  0.30518466    -0.19900
C469        C  0.39687435  0.90896936  0.38871778    -0.20900
C470        C  0.39539122  0.90699144  0.36407668    -0.20900
C471        C  0.43174382  0.62951753  0.38769855    -0.20900
C472        C  0.44121520  0.62942643  0.36329571    -0.20900
C473        C  0.42316918  0.85697625  0.41929977    -0.16300
C474        C  0.42834999  0.69064270  0.42007742    -0.16300
C475        C  0.45845398  0.69023844  0.33355608    -0.16300
C476        C  0.42257011  0.85194821  0.33263637    -0.16300
H477        H  0.44964384  0.82535298  0.46504644     0.16600
H478        H  0.45087011  0.73479409  0.46571029     0.16600
H479        H  0.47248586  0.82188366  0.29040683     0.16600
H480        H  0.49300133  0.73492962  0.29124614     0.16600
H481        H  0.38794205  0.93798032  0.40025473     0.14900
H482        H  0.38579536  0.93439219  0.35290931     0.14900
H483        H  0.42625708  0.59946969  0.39845001     0.14900
H484        H  0.44386230  0.59920281  0.35154581     0.14900
H485        H  0.41074095  0.76999091  0.39608789     0.28200
H486        H  0.41448911  0.76616218  0.35455681     0.28200
N487        N  0.19367482  0.75184315  0.34015220    -0.34600
N488        N  0.20037362  0.82366493  0.37867631    -0.55100
N489        N  0.22770948  0.75628515  0.41195561    -0.34600
N490        N  0.21767362  0.68456853  0.37417436    -0.55100
C491        C  0.17145948  0.78563265  0.33002569     0.29000
C492        C  0.18276360  0.71226876  0.32743812     0.29000
C493        C  0.22420823  0.79307654  0.42734112     0.29000
C494        C  0.22913720  0.71856759  0.42533905     0.29000
C495        C  0.19308650  0.84971398  0.35960774     0.37600
C496        C  0.21451508  0.85275462  0.39705059     0.37600
C497        C  0.21915038  0.65804866  0.35377038     0.37600
C498        C  0.23390485  0.65954463  0.39175394     0.37600
C499        C  0.14673972  0.76740495  0.31036166    -0.19900
C500        C  0.15386997  0.72112371  0.30873797    -0.19900
C501        C  0.22438433  0.77863614  0.45084569    -0.19900
C502        C  0.22727092  0.73166644  0.44957705    -0.19900
C503        C  0.20216377  0.89574218  0.36598831    -0.20900
C504        C  0.21590565  0.89764329  0.38963210    -0.20900
C505        C  0.23653015  0.61600123  0.35838563    -0.20900
C506        C  0.24578659  0.61690449  0.38246346    -0.20900
C507        C  0.17508301  0.83278886  0.33718419    -0.16300
C508        C  0.19922765  0.66872423  0.33192794    -0.16300
C509        C  0.23493048  0.67314270  0.41634636    -0.16300
C510        C  0.22336145  0.83948836  0.42078701    -0.16300
H511        H  0.12584103  0.78557357  0.29834795     0.16600
H512        H  0.13941669  0.69680063  0.29531088     0.16600
H513        H  0.22277908  0.79974831  0.46725244     0.16600
H514        H  0.22859774  0.70976241  0.46480198     0.16600
H515        H  0.19882702  0.92494521  0.35483889     0.14900
H516        H  0.22513803  0.92857904  0.40025222     0.14900
H517        H  0.24069756  0.58711657  0.34587290     0.14900
H518        H  0.25895068  0.58898602  0.39208514     0.14900
H519        H  0.21851480  0.75638585  0.35341853     0.28200
H520        H  0.23382906  0.75758024  0.39356004     0.28200
O521        O  0.39889591  0.96270104  0.48765152    -0.78100
O522        O  0.38685813  0.57562693  0.52747719    -0.78100
O523        O  0.37338168  0.56296795  0.47102471    -0.78100
O524        O  0.33286539  0.96883656  0.56264266    -0.78100
O525        O  0.35954528  0.62818973  0.49066645    -0.78200
O526        O  0.39011511  0.95633361  0.53695247    -0.78100
O527        O  0.33664889  0.56231178  0.55742781    -0.78100
O528        O  0.35294264  0.97385100  0.45814520    -0.78100
C529        C  0.38948301  0.95805917  0.46568942     1.11600
C530        C  0.37384996  0.58230510  0.54921063     1.11500
C531        C  0.37881656  0.60731646  0.47314926     1.11600
C532        C  0.37224327  0.95336569  0.55779253     1.11500
O533        O  0.30169420  0.90829088  0.53131463    -0.78100
O534        O  0.28025490  0.57898675  0.48145578    -0.78200
O535        O  0.26136273  0.97213161  0.47682445    -0.78100
O536        O  0.24892502  0.55034184  0.53130653    -0.78100
O537        O  0.29755142  0.60832054  0.52722388    -0.78100
O538        O  0.30733877  0.91558775  0.48249783    -0.78100
O539        O  0.24842469  0.95878414  0.53619669    -0.78100
O540        O  0.29511157  0.54037651  0.44739220    -0.78100
Co541      Co  0.34909272  0.94024622  0.50957047     1.51500
Co542      Co  0.33643904  0.57202288  0.50398970     1.51700
Co543      Co  0.31479232  0.51794308  0.47689809     1.51600
Co544      Co  0.29263432  0.51008546  0.54481946     1.51500
O545        O  0.32419129  0.50473203  0.51191226    -1.40000
C546        C  0.26143833  0.91872438  0.53824233     1.11500
C547        C  0.27661600  0.57358059  0.45840784     1.11600
C548        C  0.27116596  0.93052120  0.47343051     1.11500
C549        C  0.25978681  0.59177146  0.53572698     1.11500
N550        N  0.42359948  0.76643595  0.67942530    -0.34600
N551        N  0.40858710  0.83959956  0.64736885    -0.55100
N552        N  0.41195565  0.77270442  0.60619801    -0.34600
N553        N  0.42180762  0.69922380  0.63904321    -0.55100
C554        C  0.41374115  0.80009840  0.69581840     0.29000
C555        C  0.42438767  0.72699198  0.69125850     0.29000
C556        C  0.40035358  0.81076316  0.59501276     0.29000
C557        C  0.40315574  0.73575621  0.59096121     0.29000
C558        C  0.41651014  0.86499642  0.66795974     0.37600
C559        C  0.41298432  0.86891913  0.62909787     0.37600
C560        C  0.43696920  0.67269680  0.65628191     0.37600
C561        C  0.42501892  0.67455865  0.61806822     0.37600
C562        C  0.90780658  0.78162673  0.71838541    -0.19900
C563        C  0.91471702  0.73543385  0.71551206    -0.19900
C564        C  0.38489219  0.79796589  0.57208528    -0.19900
C565        C  0.38650736  0.75077773  0.56958042    -0.19900
C566        C  0.42503276  0.91082356  0.66278159    -0.20900
C567        C  0.42269134  0.91332865  0.63820641    -0.20900
C568        C  0.44904827  0.63065246  0.64628528    -0.20900
C569        C  0.44102509  0.63166538  0.62211569    -0.20900
C570        C  0.41557698  0.84750552  0.69138240    -0.16300
C571        C  0.43777975  0.68470890  0.68108257    -0.16300
C572        C  0.41187548  0.68929507  0.59545010    -0.16300
C573        C  0.40556504  0.85681255  0.60448169    -0.16300
H574        H  0.90075768  0.79982136  0.73528090     0.16600
H575        H  0.91373570  0.71101854  0.72971947     0.16600
H576        H  0.37371011  0.82030875  0.55849465     0.16600
H577        H  0.37700889  0.72998825  0.55369638     0.16600
H578        H  0.43233119  0.93945874  0.67536463     0.14900
H579        H  0.42762909  0.94435884  0.62818349     0.14900
H580        H  0.46162588  0.60191224  0.65547561     0.14900
H581        H  0.44671737  0.60408015  0.60900360     0.14900
H582        H  0.43618542  0.77102389  0.66205651     0.28200
H583        H  0.42918657  0.77287103  0.62236601     0.28200
N584        N  0.14235684  0.75277493  0.66268999    -0.34600
N585        N  0.16445709  0.81997419  0.62498434    -0.55100
N586        N  0.20437123  0.74920829  0.59618527    -0.34600
N587        N  0.18643949  0.68209496  0.63377747    -0.55100
C588        C  0.12843776  0.79188616  0.67397768     0.29000
C589        C  0.14246268  0.71927749  0.67913714     0.29000
C590        C  0.22158853  0.78645915  0.58456153     0.29000
C591        C  0.22863323  0.71358451  0.58819525     0.29000
C592        C  0.13666117  0.84523449  0.63923516     0.37600
C593        C  0.17233914  0.84328289  0.60457134     0.37600
C594        C  0.16966294  0.65563456  0.65175390     0.37600
C595        C  0.19647766  0.65333929  0.61498049     0.37600
C596        C  0.11845775  0.78283108  0.69792930    -0.19900
C597        C  0.12726461  0.73732225  0.70115829    -0.19900
C598        C  0.25774152  0.77439916  0.56928345    -0.19900
C599        C  0.26201030  0.72817622  0.57147855    -0.19900
C600        C  0.12709203  0.88509857  0.62778356    -0.20900
C601        C  0.14976161  0.88381983  0.60583701    -0.20900
C602        C  0.17057253  0.60958164  0.64454320    -0.20900
C603        C  0.18706912  0.60818190  0.62112710    -0.20900
C604        C  0.12292496  0.83496089  0.66311717    -0.16300
C605        C  0.15353349  0.67240275  0.67450981    -0.16300
C606        C  0.21683601  0.66758343  0.59303033    -0.16300
C607        C  0.20244680  0.82970854  0.58572351    -0.16300
H608        H  0.10570248  0.80644446  0.71166305     0.16600
H609        H  0.12241459  0.71942456  0.71779686     0.16600
H610        H  0.27789868  0.79623544  0.55721520     0.16600
H611        H  0.28603483  0.70736017  0.56142968     0.16600
H612        H  0.10641221  0.91261352  0.63465023     0.14900
H613        H  0.15012651  0.90994661  0.59251565     0.14900
H614        H  0.15959859  0.58008044  0.65487828     0.14900
H615        H  0.19225168  0.57751441  0.61005190     0.14900
H616        H  0.14810635  0.74862917  0.64435232     0.28200
H617        H  0.17329250  0.74620412  0.60582905     0.28200
O618        O  0.01342373  0.95400640  0.30120636    -0.78100
O619        O  0.09452646  0.01835070  0.20739747    -0.78100
O620        O  0.47905223  0.95193334  0.24211704    -0.78100
O621        O  0.12720391  0.93048456  0.27236300    -0.78100
O622        O  0.01399922  0.98183602  0.21291181    -0.78200
O623        O  0.10707083  0.96238327  0.30736852    -0.78100
O624        O  0.11504046  0.95767004  0.22568771    -0.78100
O625        O  0.45943581  0.98912985  0.28239019    -0.78100
C626        C  0.47176015  0.95675543  0.29538560     1.11600
C627        C  0.11722383  0.98220102  0.20745266     1.11500
C628        C  0.48422995  0.95247279  0.21997016     1.11600
C629        C  0.12396650  0.92976608  0.29507228     1.11500
O630        O  0.10198047  0.55988994  0.30045117    -0.78100
O631        O  0.00846069  0.57098201  0.21434865    -0.78200
O632        O  0.51061726  0.57796971  0.26921525    -0.78100
O633        O  0.14873544  0.54901392  0.23969477    -0.78100
O634        O  0.08618978  0.58801611  0.24431076    -0.78100
O635        O  0.00909882  0.55057788  0.30471374    -0.78100
O636        O  0.16065327  0.52338448  0.28523458    -0.78100
O637        O  0.45023136  0.54127831  0.23750674    -0.78100
Co638      Co  0.05858452  0.00619123  0.30048428     1.51500
Co639      Co  0.04675243  0.03315963  0.23330037     1.51700
Co640      Co  0.49975518  0.01427878  0.25497605     1.51600
Co641      Co  0.13317729  0.98984867  0.25610140     1.51500
O642        O  0.06388719  0.99730121  0.26345228    -1.40000
C643        C  0.14443396  0.55820967  0.29597772     1.11500
C644        C  0.46512972  0.56703582  0.22031146     1.11600
C645        C  0.50372878  0.58355713  0.29149803     1.11500
C646        C  0.12831592  0.58600014  0.23785767     1.11500
O647        O  0.44510402  0.66324052  0.98856168    -0.78100
O648        O  0.10379872  0.68222366  0.03222960    -0.78100
O649        O  0.09852052  0.66912356  0.98091972    -0.78100
O650        O  0.99776087  0.71536546  0.05863026    -0.78100
O651        O  0.16475198  0.69956165  0.99547017    -0.78200
O652        O  0.49722156  0.66145691  0.02953156    -0.78100
O653        O  0.09199966  0.73544796  0.06026018    -0.78100
O654        O  0.00665339  0.67967976  0.96370410    -0.78100
C655        C  0.46690449  0.65784166  0.96847081     1.11600
C656        C  0.10929017  0.69821996  0.05343580     1.11500
C657        C  0.14331739  0.66985782  0.98182717     1.11600
C658        C  0.48494049  0.67522365  0.05054459     1.11500
O659        O  0.44060870  0.73724529  0.02665284    -0.78100
O660        O  0.12224420  0.76926305  0.97719448    -0.78200
O661        O  0.02687063  0.78057062  0.96687018    -0.78100
O662        O  0.08265531  0.81801374  0.03572600    -0.78100
O663        O  0.14144436  0.77507927  0.02637763    -0.78100
O664        O  0.46295868  0.75041527  0.98179616    -0.78100
O665        O  0.98780497  0.79811348  0.03367600    -0.78100
O666        O  0.09152841  0.72886952  0.94604431    -0.78100
Co667      Co  0.48612880  0.70548713  0.00442240     1.51500
Co668      Co  0.10854956  0.72556173  0.00558885     1.51700
Co669      Co  0.06020442  0.72646778  0.97649124     1.51600
Co670      Co  0.04023950  0.76641488  0.04538694     1.51500
O671        O  0.04329074  0.73987381  0.01152151    -1.40000
C672        C  0.44890792  0.77713416  0.03647611     1.11500
C673        C  0.12175403  0.75859123  0.95432722     1.11600
C674        C  0.48344418  0.77859477  0.96822517     1.11500
C675        C  0.12560886  0.81208029  0.03531068     1.11500
N676        N  0.31220750  0.82501999  0.91010840    -0.34600
N677        N  0.38826863  0.84063935  0.87647201    -0.55100
N678        N  0.32278970  0.86506215  0.83991144    -0.34600
N679        N  0.24647158  0.84475689  0.87256958    -0.55100
C680        C  0.34785184  0.81099399  0.92297270     0.29000
C681        C  0.27247422  0.80534299  0.91932941     0.29000
C682        C  0.36125825  0.86097831  0.82589865     0.29000
C683        C  0.28696491  0.87182152  0.82532430     0.29000
C684        C  0.41308583  0.83959501  0.89683999     0.37600
C685        C  0.41843785  0.85317036  0.85872482     0.37600
C686        C  0.21650408  0.83608585  0.89099607     0.37600
C687        C  0.22282833  0.86595816  0.85583631     0.37600
C688        C  0.33053041  0.78279963  0.94093535    -0.19900
C689        C  0.28308118  0.77894265  0.93853403    -0.19900
C690        C  0.34963150  0.86538067  0.80198585    -0.19900
C691        C  0.30289246  0.87261477  0.80166341    -0.19900
C692        C  0.45933029  0.85125907  0.89198631    -0.20900
C693        C  0.46278469  0.85956862  0.86785783    -0.20900
C694        C  0.17326533  0.85090723  0.88574023    -0.20900
C695        C  0.17736004  0.87019606  0.86359587    -0.20900
C696        C  0.39542606  0.82366005  0.91907913    -0.16300
C697        C  0.22685959  0.81289601  0.91192587    -0.16300
C698        C  0.24080004  0.87887964  0.83303976    -0.16300
C699        C  0.40705714  0.85770249  0.83427118    -0.16300
H700        H  0.35006413  0.76628372  0.95422717     0.16600
H701        H  0.25908939  0.75928250  0.94984717     0.16600
H702        H  0.37266134  0.86469873  0.78641463     0.16600
H703        H  0.28293674  0.87786777  0.78582183     0.16600
H704        H  0.48780998  0.85256541  0.90439390     0.14900
H705        H  0.49443055  0.86925072  0.85817559     0.14900
H706        H  0.14203356  0.84822668  0.89674513     0.14900
H707        H  0.14971661  0.88480876  0.85411731     0.14900
H708        H  0.31462352  0.85027021  0.89747256     0.28200
H709        H  0.32198013  0.86849621  0.85848243     0.28200
N710        N  0.29040554  0.61023479  0.84177233    -0.34600
N711        N  0.36423133  0.59268775  0.87474581    -0.55100
N712        N  0.30136063  0.60748474  0.91493974    -0.34600
N713        N  0.22671358  0.62135175  0.88291275    -0.55100
C714        C  0.32099651  0.59003239  0.82645078     0.29000
C715        C  0.24899588  0.60921934  0.83067393     0.29000
C716        C  0.33899191  0.59434739  0.92623290     0.29000
C717        C  0.26519247  0.60332167  0.93059856     0.29000
C718        C  0.38845024  0.59307214  0.85376726     0.37600
C719        C  0.39560454  0.59946737  0.89243577     0.37600
C720        C  0.19984920  0.63571508  0.86537202     0.37600
C721        C  0.20516076  0.63116548  0.90416931     0.37600
C722        C  0.29892160  0.57673488  0.80518513    -0.19900
C723        C  0.25361879  0.58886225  0.80780830    -0.19900
C724        C  0.32679412  0.58120265  0.94929579    -0.19900
C725        C  0.27999411  0.58650441  0.95200410    -0.19900
C726        C  0.43555327  0.59872014  0.85820984    -0.20900
C727        C  0.44001663  0.60334344  0.88274370    -0.20900
C728        C  0.16067725  0.65443234  0.87554878    -0.20900
C729        C  0.16410621  0.65166073  0.90011626    -0.20900
C730        C  0.36876568  0.58559759  0.83080641    -0.16300
C731        C  0.20753761  0.62704295  0.84041241    -0.16300
C732        C  0.22090967  0.61952314  0.92700827    -0.16300
C733        C  0.38460672  0.59970398  0.91721564    -0.16300
H734        H  0.31392331  0.56013760  0.78938437     0.16600
H735        H  0.22705305  0.58305197  0.79440162     0.16600
H736        H  0.34953896  0.57015437  0.96291657     0.16600
H737        H  0.25959441  0.58047801  0.96821501     0.16600
H738        H  0.46378906  0.59978596  0.84516395     0.14900
H739        H  0.47223906  0.60803785  0.89235378     0.14900
H740        H  0.13211150  0.66774405  0.86621861     0.14900
H741        H  0.13889345  0.66272530  0.91341720     0.14900
H742        H  0.29823428  0.62758307  0.85800029     0.28200
H743        H  0.30226604  0.62530138  0.89910511     0.28200
O744        O  0.10957990  0.94651685  0.72522680    -0.78100
O745        O  0.07202146  0.59743648  0.78561635    -0.78100
O746        O  0.08583057  0.54457426  0.71511522    -0.78100
O747        O  0.10905438  0.95190117  0.80645249    -0.78100
O748        O  0.11460447  0.57918243  0.74562959    -0.78200
O749        O  0.13983423  0.93342321  0.77089809    -0.78100
O750        O  0.10927901  0.54443459  0.80344572    -0.78100
O751        O  0.04720702  0.96371138  0.70704858    -0.78100
C752        C  0.08427334  0.94225246  0.70703750     1.11600
C753        C  0.10378551  0.58594791  0.79955228     1.11500
C754        C  0.11464476  0.57444443  0.72338841     1.11600
C755        C  0.14182317  0.93599304  0.79359251     1.11500
O756        O  0.04878506  0.89508908  0.78389467    -0.78100
O757        O  0.02432683  0.60744194  0.73902187    -0.78200
O758        O  0.97868634  0.97259098  0.74365988    -0.78100
O759        O  0.01004929  0.54148573  0.80467169    -0.78100
O760        O  0.98690490  0.54536013  0.76801674    -0.78100
O761        O  0.01817365  0.91015440  0.73944273    -0.78100
O762        O  0.00863566  0.95058628  0.79934918    -0.78100
O763        O  0.99534546  0.54993136  0.71458843    -0.78100
Co764      Co  0.07930015  0.92596364  0.75515425     1.51500
Co765      Co  0.05159764  0.55783403  0.75626951     1.51700
Co766      Co  0.03385823  0.01138316  0.73352636     1.51600
Co767      Co  0.05975849  0.99686191  0.80069558     1.51500
O768        O  0.06925950  0.99390413  0.76395110    -1.40000
C769        C  0.51357007  0.90871164  0.79539974     1.11500
C770        C  0.49873866  0.59295322  0.72118050     1.11600
C771        C  0.48035158  0.93002842  0.73865418     1.11500
C772        C  0.47831716  0.54782010  0.79017720     1.11500
N773        N  0.28956195  0.63196503  0.17509229    -0.34600
N774        N  0.21928717  0.64958908  0.14221639    -0.55100
N775        N  0.28898224  0.64263378  0.10150590    -0.34600
N776        N  0.35956540  0.62996093  0.13537700    -0.55100
C777        C  0.25524469  0.64164943  0.19109424     0.29000
C778        C  0.32908660  0.63204060  0.18751499     0.29000
C779        C  0.25242635  0.65863166  0.09028711     0.29000
C780        C  0.32714503  0.64933590  0.08703024     0.29000
C781        C  0.19169990  0.64292676  0.16196563     0.37600
C782        C  0.19118330  0.64906804  0.12307387     0.37600
C783        C  0.38463489  0.61554370  0.15349260     0.37600
C784        C  0.38511364  0.62352435  0.11505465     0.37600
C785        C  0.27330141  0.64777833  0.21399206    -0.19900
C786        C  0.31995049  0.64178365  0.21173678    -0.19900
C787        C  0.26727067  0.67461137  0.06802481    -0.19900
C788        C  0.31428492  0.66881490  0.06602005    -0.19900
C789        C  0.14572233  0.63916174  0.15542022    -0.20900
C790        C  0.14532703  0.64321050  0.13084213    -0.20900
C791        C  0.42649948  0.60022473  0.14465519    -0.20900
C792        C  0.42688686  0.60556637  0.12030989    -0.20900
C793        C  0.20768677  0.64132636  0.18584361    -0.16300
C794        C  0.37208662  0.61898905  0.17806990    -0.16300
C795        C  0.37282921  0.63714937  0.09216073    -0.16300
C796        C  0.20570734  0.65695017  0.09896097    -0.16300
H797        H  0.25467399  0.65497559  0.23065460     0.16600
H798        H  0.34421745  0.64329594  0.22637517     0.16600
H799        H  0.24640974  0.68907970  0.05457576     0.16600
H800        H  0.33643005  0.67791178  0.05082412     0.16600
H801        H  0.11566108  0.63417693  0.16711328     0.14900
H802        H  0.11465705  0.64204957  0.11993208     0.14900
H803        H  0.45434656  0.58737102  0.15473327     0.14900
H804        H  0.45485368  0.59748356  0.10793996     0.14900
H805        H  0.28570760  0.61948432  0.15748437     0.28200
H806        H  0.28651464  0.62426508  0.11713216     0.28200
N807        N  0.29449707  0.85684319  0.09394980    -0.34600
N808        N  0.36646377  0.87068978  0.13099691    -0.55100
N809        N  0.30449158  0.92659306  0.15909439    -0.34600
N810        N  0.23230135  0.90930998  0.12184916    -0.55100
C811        C  0.32482293  0.82564664  0.08674298     0.29000
C812        C  0.25493247  0.84604452  0.08189078     0.29000
C813        C  0.33888593  0.92331108  0.17528819     0.29000
C814        C  0.26613526  0.94012397  0.17128560     0.29000
C815        C  0.39134788  0.85132608  0.11281176     0.37600
C816        C  0.39701603  0.88736381  0.14782394     0.37600
C817        C  0.20666551  0.90384909  0.10170153     0.37600
C818        C  0.21015588  0.93814934  0.13696355     0.37600
C819        C  0.30433562  0.79450640  0.07007776    -0.19900
C820        C  0.26013317  0.80725542  0.06707914    -0.19900
C821        C  0.32245813  0.93644372  0.19796257    -0.19900
C822        C  0.27673447  0.94665988  0.19549284    -0.19900
C823        C  0.43797461  0.85478628  0.11829910    -0.20900
C824        C  0.44155315  0.87738757  0.14051596    -0.20900
C825        C  0.16803285  0.92957225  0.10388579    -0.20900
C826        C  0.17010473  0.95123656  0.12627983    -0.20900
C827        C  0.37212911  0.82851333  0.09200655    -0.16300
C828        C  0.21546693  0.87205703  0.08267764    -0.16300
C829        C  0.22233194  0.94823207  0.16118169    -0.16300
C830        C  0.38484844  0.90960004  0.17007869    -0.16300
H831        H  0.32021448  0.76647748  0.06039865     0.16600
H832        H  0.23518307  0.79045712  0.05490600     0.16600
H833        H  0.34128260  0.93798964  0.21464724     0.16600
H834        H  0.25394246  0.95790535  0.20993386     0.16600
H835        H  0.46633103  0.84181428  0.10757717     0.14900
H836        H  0.47330066  0.88552122  0.15016802     0.14900
H837        H  0.14049362  0.93121475  0.09108484     0.14900
H838        H  0.14438562  0.97316189  0.13406612     0.14900
H839        H  0.30299294  0.88736812  0.10351782     0.28200
H840        H  0.30791211  0.92338657  0.14050681     0.28200
C841        C  0.13540093  0.61828752  0.81181334    -0.11200
C842        C  0.16813826  0.62879994  0.82453378    -0.12800
C843        C  0.40020612  0.57162619  0.81137600    -0.11200
C844        C  0.43348708  0.56025241  0.79945384    -0.12800
C845        C  0.20947629  0.89941836  0.81673770    -0.11200
C846        C  0.18022530  0.91696124  0.80535345    -0.12800
C847        C  0.47862880  0.87789370  0.80549788    -0.11200
C848        C  0.44544975  0.86422392  0.81724451    -0.12800
C849        C  0.14045480  0.67774501  0.06901721    -0.11200
C850        C  0.16996359  0.66641063  0.08223211    -0.12800
C851        C  0.41082431  0.64294542  0.07446191    -0.11200
C852        C  0.44613679  0.65215795  0.06293597    -0.12800
C853        C  0.15552871  0.84340330  0.04926741    -0.11200
C854        C  0.18115152  0.86136734  0.06422613    -0.12800
C855        C  0.42034112  0.79364478  0.05573473    -0.11200
C856        C  0.40145055  0.80883984  0.07353467    -0.12800
C857        C  0.18803542  0.79534469  0.92655143    -0.11200
C858        C  0.15618549  0.77973279  0.93865389    -0.12800
C859        C  0.45579666  0.80345197  0.95234067    -0.11200
C860        C  0.42849287  0.81507247  0.93774618    -0.12800
C861        C  0.16899068  0.64199659  0.96505300    -0.11200
C862        C  0.19179802  0.62810073  0.94814344    -0.12800
C863        C  0.44490273  0.62958740  0.94986703    -0.11200
C864        C  0.42050216  0.61163434  0.93446976    -0.12800
C865        C  0.45140076  0.92908822  0.20312816    -0.11200
C866        C  0.42116183  0.91837235  0.18843553    -0.12800
C867        C  0.18526934  0.96404448  0.17689752    -0.11200
C868        C  0.15230861  0.97344544  0.18945733    -0.12800
C869        C  0.43302397  0.59027181  0.20725083    -0.11200
C870        C  0.40533116  0.60602517  0.19481480    -0.12800
C871        C  0.15082536  0.61967693  0.22241418    -0.06400
C872        C  0.17456499  0.63467026  0.20588641    -0.12800
C873        C  0.13713756  0.60833637  0.70773172    -0.11200
C874        C  0.14618950  0.63866546  0.69352144    -0.12800
C875        C  0.10485908  0.87283278  0.67762251    -0.11200
C876        C  0.09358221  0.90630132  0.68939550    -0.12800
C877        C  0.47408510  0.62499439  0.70849872    -0.11200
C878        C  0.45530924  0.65213102  0.69691228    -0.12800
C879        C  0.42408105  0.87949461  0.71175150    -0.11200
C880        C  0.44272254  0.90487122  0.72676924    -0.12800
C881        C  0.40472738  0.65341236  0.57656367    -0.11200
C882        C  0.39507336  0.62003933  0.56350417    -0.12800
C883        C  0.40028184  0.89412902  0.58823397    -0.11200
C884        C  0.39161877  0.92404266  0.57478648    -0.12800
C885        C  0.22619936  0.63485340  0.57375332    -0.11200
C886        C  0.23793788  0.61478209  0.55556958    -0.12800
C887        C  0.23380775  0.88711949  0.55248258    -0.11200
C888        C  0.21657430  0.86179372  0.56726751    -0.12800
C889        C  0.17364353  0.59628489  0.30457413    -0.11200
C890        C  0.18870867  0.63063137  0.31508444    -0.12800
C891        C  0.15780253  0.86541999  0.32082515    -0.11200
C892        C  0.14251164  0.89313507  0.30788600    -0.12800
C893        C  0.25455881  0.60718292  0.44525647    -0.11200
C894        C  0.24334495  0.63793560  0.43315254    -0.12800
C895        C  0.23303940  0.87487129  0.43966564    -0.11200
C896        C  0.24621496  0.90133808  0.45583069    -0.12800
C897        C  0.47440666  0.65643908  0.31564723    -0.11200
C898        C  0.48798188  0.62568444  0.30251059    -0.12800
C899        C  0.42653989  0.88863702  0.31555546    -0.11200
C900        C  0.43973445  0.92180170  0.30439415    -0.12800
C901        C  0.40423000  0.63314273  0.45494106    -0.11200
C902        C  0.41844187  0.65750864  0.43884998    -0.12800
C903        C  0.41292102  0.92577655  0.45067111    -0.11200
C904        C  0.42190158  0.89409025  0.43724751    -0.12800
N905        N  0.92493126  0.27332464  0.41317255    -0.34600
N906        N  0.92219793  0.34085105  0.37587534    -0.55100
N907        N  0.93587694  0.27040902  0.33918703    -0.34600
N908        N  0.94247728  0.20301999  0.37701412    -0.55100
C909        C  0.93117374  0.31258100  0.42678368     0.29000
C910        C  0.93213931  0.23789717  0.42737265     0.29000
C911        C  0.94037195  0.30865692  0.32600166     0.29000
C912        C  0.95769779  0.23672477  0.32686332     0.29000
C913        C  0.91347483  0.36783848  0.39548377     0.37600
C914        C  0.91160041  0.36473681  0.35658976     0.37600
C915        C  0.93244780  0.17541402  0.39572996     0.37600
C916        C  0.94726900  0.17531940  0.35712857     0.37600
C917        C  0.94216415  0.30186701  0.45004228    -0.19900
C918        C  0.94225930  0.25466670  0.45047282    -0.19900
C919        C  0.96447038  0.29888622  0.30480639    -0.19900
C920        C  0.97551990  0.25362090  0.30537975    -0.19900
C921        C  0.89705485  0.40909039  0.38864454    -0.20900
C922        C  0.89564848  0.40701815  0.36399944    -0.20900
C923        C  0.93130059  0.12981180  0.38772662    -0.20900
C924        C  0.94122266  0.12972224  0.36336678    -0.20900
C925        C  0.92336805  0.35726911  0.41930394    -0.16300
C926        C  0.92795981  0.19088474  0.42014501    -0.16300
C927        C  0.95954465  0.19052774  0.33374906    -0.16300
C928        C  0.92321335  0.35201230  0.33263607    -0.16300
H929        H  0.94840692  0.32552480  0.46527012     0.16600
H930        H  0.94926197  0.23495613  0.46596996     0.16600
H931        H  0.97358657  0.32206730  0.29050845     0.16600
H932        H  0.99441485  0.23519427  0.29147252     0.16600
H933        H  0.88785913  0.43804416  0.40015543     0.14900
H934        H  0.88589023  0.43429858  0.35279509     0.14900
H935        H  0.92524231  0.09975659  0.39842219     0.14900
H936        H  0.94371289  0.09950615  0.35159675     0.14900
H937        H  0.91117860  0.27030802  0.39604038     0.28200
H938        H  0.91540195  0.26638013  0.35460642     0.28200
N939        N  0.69416405  0.25202832  0.34022545    -0.34600
N940        N  0.70075277  0.32392429  0.37874146    -0.55100
N941        N  0.72766979  0.25653205  0.41216014    -0.34600
N942        N  0.71738431  0.18469312  0.37443096    -0.55100
C943        C  0.67247562  0.28595687  0.32990395     0.29000
C944        C  0.68348946  0.21250702  0.32740979     0.29000
C945        C  0.72414592  0.29338071  0.42749921     0.29000
C946        C  0.72882367  0.21885308  0.42559135     0.29000
C947        C  0.69357160  0.34998254  0.35966240     0.37600
C948        C  0.71477270  0.35301485  0.39713846     0.37600
C949        C  0.71880389  0.15804185  0.35406484     0.37600
C950        C  0.73336061  0.15964880  0.39207752     0.37600
C951        C  0.64845765  0.26788354  0.30997286    -0.19900
C952        C  0.65541292  0.22156699  0.30840578    -0.19900
C953        C  0.72406202  0.27902133  0.45102554    -0.19900
C954        C  0.72679540  0.23203598  0.44981479    -0.19900
C955        C  0.70259000  0.39601277  0.36606334    -0.20900
C956        C  0.71621041  0.39790755  0.38972360    -0.20900
C957        C  0.73583702  0.11589069  0.35878256    -0.20900
C958        C  0.74498580  0.11687150  0.38286903    -0.20900
C959        C  0.67582883  0.33308345  0.33717521    -0.16300
C960        C  0.69934113  0.16878775  0.33210729    -0.16300
C961        C  0.73444904  0.17336774  0.41665650    -0.16300
C962        C  0.72343667  0.33976257  0.42089433    -0.16300
H963        H  0.62810962  0.28616761  0.29775031     0.16600
H964        H  0.64134642  0.19734749  0.29482405     0.16600
H965        H  0.72234328  0.30019145  0.46740835     0.16600
H966        H  0.72786071  0.21016778  0.46506776     0.16600
H967        H  0.69934538  0.42522040  0.35490565     0.14900
H968        H  0.72538998  0.42884225  0.40035641     0.14900
H969        H  0.73993412  0.08692081  0.34631795     0.14900
H970        H  0.75794367  0.08892082  0.39254608     0.14900
H971        H  0.71845239  0.25641118  0.35376271     0.28200
H972        H  0.73396468  0.25774783  0.39377587     0.28200
O973        O  0.89904061  0.46271821  0.48771482    -0.78100
O974        O  0.88701388  0.07551822  0.52748421    -0.78100
O975        O  0.87313228  0.06301699  0.47099538    -0.78100
O976        O  0.83278227  0.46887079  0.56265671    -0.78100
O977        O  0.85951108  0.12817186  0.49076178    -0.78200
O978        O  0.89012090  0.45634987  0.53701990    -0.78100
O979        O  0.83684688  0.06224409  0.55745094    -0.78100
O980        O  0.85309404  0.47382196  0.45820266    -0.78100
C981        C  0.88967786  0.45814192  0.46574415     1.11600
C982        C  0.87406140  0.08220799  0.54922908     1.11500
C983        C  0.87860111  0.10735812  0.47317182     1.11600
C984        C  0.87217560  0.45337724  0.55784516     1.11500
O985        O  0.80172325  0.40829500  0.53133167    -0.78100
O986        O  0.78016041  0.07900317  0.48161337    -0.78200
O987        O  0.76149347  0.47229549  0.47688130    -0.78100
O988        O  0.74898489  0.05040754  0.53142013    -0.78100
O989        O  0.79773619  0.10828742  0.52731660    -0.78100
O990        O  0.80741371  0.41569197  0.48253366    -0.78100
O991        O  0.74840377  0.45873525  0.53611517    -0.78100
O992        O  0.79474266  0.04054412  0.44745778    -0.78100
Co993      Co  0.84915895  0.44028782  0.50960946     1.51500
Co994      Co  0.83647736  0.07196705  0.50404449     1.51700
Co995      Co  0.81460540  0.01791441  0.47688644     1.51600
Co996      Co  0.79272414  0.01007472  0.54485370     1.51500
O997        O  0.82413388  0.00467430  0.51190072    -1.40000
C998        C  0.76143215  0.41869888  0.53821396     1.11500
C999        C  0.77632807  0.07370575  0.45857112     1.11600
C1000       C  0.77123017  0.43067548  0.47350263     1.11500
C1001       C  0.75992509  0.09183677  0.53580155     1.11500
N1002       N  0.92304023  0.26648715  0.67961015    -0.34600
N1003       N  0.90826223  0.33963906  0.64750656    -0.55100
N1004       N  0.91183800  0.27263977  0.60632305    -0.34600
N1005       N  0.92127684  0.19915172  0.63921127    -0.55100
C1006       C  0.91348032  0.30020596  0.69602426     0.29000
C1007       C  0.92424038  0.22712247  0.69147231     0.29000
C1008       C  0.90045669  0.31072707  0.59508632     0.29000
C1009       C  0.90324398  0.23569276  0.59104713     0.29000
C1010       C  0.91586237  0.36508674  0.66811657     0.37600
C1011       C  0.91251178  0.36896373  0.62923213     0.37600
C1012       C  0.93638862  0.17266200  0.65647935     0.37600
C1013       C  0.92449110  0.17440375  0.61825756     0.37600
C1014       C  0.40815863  0.28183900  0.71864772    -0.19900
C1015       C  0.41517621  0.23567253  0.71577803    -0.19900
C1016       C  0.88538861  0.29794037  0.57208516    -0.19900
C1017       C  0.88699587  0.25075091  0.56958853    -0.19900
C1018       C  0.92399928  0.41096247  0.66294510    -0.20900
C1019       C  0.92177067  0.41343824  0.63836154    -0.20900
C1020       C  0.94833782  0.13053671  0.64652772    -0.20900
C1021       C  0.94034377  0.13147388  0.62235888    -0.20900
C1022       C  0.91511478  0.34759625  0.69154765    -0.16300
C1023       C  0.93755792  0.18484328  0.68125768    -0.16300
C1024       C  0.91174384  0.18918368  0.59557773    -0.16300
C1025       C  0.90541632  0.35679639  0.60458453    -0.16300
H1026       H  0.40148529  0.30008791  0.73557350     0.16600
H1027       H  0.41466181  0.21134591  0.73001770     0.16600
H1028       H  0.87444036  0.32029076  0.55844138     0.16600
H1029       H  0.87772343  0.22997869  0.55366433     0.16600
H1030       H  0.93099072  0.43964834  0.67553791     0.14900
H1031       H  0.92650061  0.44449654  0.62834734     0.14900
H1032       H  0.96090954  0.10181997  0.65574007     0.14900
H1033       H  0.94606569  0.10385042  0.60927466     0.14900
H1034       H  0.93520115  0.27098283  0.66216782     0.28200
H1035       H  0.92876787  0.27278691  0.62257255     0.28200
N1036       N  0.64190735  0.25266474  0.66254219    -0.34600
N1037       N  0.66385482  0.31996862  0.62486847    -0.55100
N1038       N  0.70385986  0.24929064  0.59611248    -0.34600
N1039       N  0.68606101  0.18209043  0.63367789    -0.55100
C1040       C  0.62764341  0.29169390  0.67378256     0.29000
C1041       C  0.64212866  0.21920062  0.67901445     0.29000
C1042       C  0.72147364  0.28665992  0.58471855     0.29000
C1043       C  0.72847844  0.21378585  0.58831672     0.29000
C1044       C  0.63570861  0.34501680  0.63902254     0.37600
C1045       C  0.67170559  0.34323646  0.60444036     0.37600
C1046       C  0.66972931  0.15560286  0.65172603     0.37600
C1047       C  0.69629178  0.15336698  0.61491232     0.37600
C1048       C  0.61755923  0.28260694  0.69771808    -0.19900
C1049       C  0.62665989  0.23718788  0.70099241    -0.19900
C1050       C  0.75824438  0.27480222  0.56981671    -0.19900
C1051       C  0.76247625  0.22855792  0.57198056    -0.19900
C1052       C  0.62586400  0.38471366  0.62748941    -0.20900
C1053       C  0.64874427  0.38354588  0.60558959    -0.20900
C1054       C  0.67110958  0.10954259  0.64458825    -0.20900
C1055       C  0.68742056  0.10817478  0.62113147    -0.20900
C1056       C  0.62193087  0.33472722  0.66289950    -0.16300
C1057       C  0.65358072  0.17239595  0.67446960    -0.16300
C1058       C  0.71661493  0.16774711  0.59299467    -0.16300
C1059       C  0.70215737  0.32981471  0.58572021    -0.16300
H1060       H  0.60454532  0.30614279  0.71141512     0.16600
H1061       H  0.62181565  0.21930245  0.71763465     0.16600
H1062       H  0.77885863  0.29679761  0.55801717     0.16600
H1063       H  0.78692655  0.20784463  0.56217924     0.16600
H1064       H  0.60485995  0.41204155  0.63427395     0.14900
H1065       H  0.64898874  0.40958689  0.59222587     0.14900
H1066       H  0.66060340  0.08001352  0.65500361     0.14900
H1067       H  0.69295781  0.07752484  0.61010351     0.14900
H1068       H  0.64789601  0.24858227  0.64422023     0.28200
H1069       H  0.67243554  0.24615707  0.60545512     0.28200
O1070       O  0.51342062  0.45412165  0.30124673    -0.78100
O1071       O  0.59446506  0.51823445  0.20746393    -0.78100
O1072       O  0.97921110  0.45175233  0.24203798    -0.78100
O1073       O  0.62708328  0.43038622  0.27241771    -0.78100
O1074       O  0.51381545  0.48213935  0.21289549    -0.78200
O1075       O  0.60709187  0.46246322  0.30740275    -0.78100
O1076       O  0.61478189  0.45744987  0.22573699    -0.78100
O1077       O  0.95944244  0.48905147  0.28229833    -0.78100
C1078       C  0.97179393  0.45676304  0.29534245     1.11600
C1079       C  0.61695678  0.48195089  0.20749335     1.11500
C1080       C  0.98417954  0.45260470  0.21988839     1.11600
C1081       C  0.62404365  0.42983076  0.29513456     1.11500
O1082       O  0.60198020  0.05984989  0.30053714    -0.78100
O1083       O  0.50809134  0.07074999  0.21430919    -0.78200
O1084       O  0.01076456  0.07808154  0.26929414    -0.78100
O1085       O  0.64868873  0.04928572  0.23973062    -0.78100
O1086       O  0.58594294  0.08803981  0.24421365    -0.78100
O1087       O  0.50915259  0.05052366  0.30474621    -0.78100
O1088       O  0.66069368  0.02349158  0.28527968    -0.78100
O1089       O  0.95006839  0.04136801  0.23767806    -0.78100
Co1090     Co  0.55857912  0.50626686  0.30048410     1.51500
Co1091     Co  0.54680021  0.53326347  0.23337034     1.51700
Co1092     Co  0.99979088  0.51414937  0.25490220     1.51600
Co1093     Co  0.63309407  0.48966556  0.25610337     1.51500
O1094       O  0.56386099  0.49725617  0.26346955    -1.40000
C1095       C  0.64444378  0.05824140  0.29608173     1.11500
C1096       C  0.96480890  0.06695898  0.22039243     1.11600
C1097       C  0.00405165  0.08363622  0.29159116     1.11500
C1098       C  0.62810090  0.08615817  0.23780066     1.11500
O1099       O  0.94485514  0.16283096  0.98850687    -0.78100
O1100       O  0.60359078  0.18199783  0.03197113    -0.78100
O1101       O  0.59832606  0.16917480  0.98067961    -0.78100
O1102       O  0.49744804  0.21534168  0.05859054    -0.78100
O1103       O  0.66449155  0.19976724  0.99522586    -0.78200
O1104       O  0.99682139  0.16129116  0.02957455    -0.78100
O1105       O  0.59172005  0.23504775  0.06010415    -0.78100
O1106       O  0.50631811  0.17947277  0.96360159    -0.78100
C1107       C  0.96663263  0.15748062  0.96839904     1.11600
C1108       C  0.60904811  0.19785557  0.05320839     1.11500
C1109       C  0.64312605  0.16998434  0.98160596     1.11600
C1110       C  0.98463164  0.17517272  0.05058469     1.11500
O1111       O  0.94031057  0.23717574  0.02659796    -0.78100
O1112       O  0.62173014  0.26951616  0.97713153    -0.78200
O1113       O  0.52628374  0.28049449  0.96688015    -0.78100
O1114       O  0.58240045  0.31780063  0.03560404    -0.78100
O1115       O  0.64115136  0.27486334  0.02629645    -0.78100
O1116       O  0.96246763  0.24997297  0.98170370    -0.78100
O1117       O  0.48764428  0.29799315  0.03353769    -0.78100
O1118       O  0.59110641  0.22918502  0.94594193    -0.78100
Co1119     Co  0.98575201  0.20520145  0.00438890     1.51500
Co1120     Co  0.60822231  0.22553923  0.00542262     1.51700
Co1121     Co  0.55979663  0.22643706  0.97638701     1.51600
Co1122     Co  0.53998997  0.26623274  0.04528082     1.51500
O1123       O  0.54292521  0.23963386  0.01143622    -1.40000
C1124       C  0.94872301  0.27710673  0.03637018     1.11500
C1125       C  0.62125113  0.25896920  0.95425099     1.11600
C1126       C  0.98286569  0.27830242  0.96818825     1.11500
C1127       C  0.62533256  0.31184986  0.03523258     1.11500
N1128       N  0.81175987  0.32505237  0.90994211    -0.34600
N1129       N  0.88811327  0.34011337  0.87628312    -0.55100
N1130       N  0.82292437  0.36502690  0.83969311    -0.34600
N1131       N  0.74626737  0.34462746  0.87228613    -0.55100
C1132       C  0.84730241  0.31131341  0.92298371     0.29000
C1133       C  0.77191509  0.30590289  0.91933067     0.29000
C1134       C  0.86147117  0.36109701  0.82572217     0.29000
C1135       C  0.78722136  0.37206524  0.82508337     0.29000
C1136       C  0.91291203  0.33855351  0.89662879     0.37600
C1137       C  0.91848319  0.35205467  0.85851009     0.37600
C1138       C  0.71594447  0.33528967  0.89048008     0.37600
C1139       C  0.72255248  0.36505837  0.85529585     0.37600
C1140       C  0.82979260  0.28392962  0.94124389    -0.19900
C1141       C  0.78235963  0.28023063  0.93884409    -0.19900
C1142       C  0.85002623  0.36596796  0.80182139    -0.19900
C1143       C  0.80332415  0.37328067  0.80146047    -0.19900
C1144       C  0.95934387  0.34917976  0.89171540    -0.20900
C1145       C  0.96292919  0.35743346  0.86759243    -0.20900
C1146       C  0.67241440  0.34878108  0.88477256    -0.20900
C1147       C  0.67667549  0.36800257  0.86262360    -0.20900
C1148       C  0.89499135  0.32332645  0.91896572    -0.16300
C1149       C  0.72632094  0.31299008  0.91170344    -0.16300
C1150       C  0.74089985  0.37863681  0.83267853    -0.16300
C1151       C  0.90718122  0.35724163  0.83409790    -0.16300
H1152       H  0.84919773  0.26776606  0.95471647     0.16600
H1153       H  0.75827835  0.26105293  0.95032650     0.16600
H1154       H  0.87312784  0.36539481  0.78627750     0.16600
H1155       H  0.78346918  0.37870144  0.78560568     0.16600
H1156       H  0.98784363  0.34992071  0.90409161     0.14900
H1157       H  0.99472451  0.36648973  0.85789147     0.14900
H1158       H  0.64087469  0.34532714  0.89549353     0.14900
H1159       H  0.64889164  0.38173841  0.85286181     0.14900
H1160       H  0.81435125  0.34973331  0.89701082     0.28200
H1161       H  0.82194175  0.36799490  0.85828666     0.28200
N1162       N  0.79034562  0.11075667  0.84166478    -0.34600
N1163       N  0.86413581  0.09276637  0.87460215    -0.55100
N1164       N  0.80108278  0.10679715  0.91482868    -0.34600
N1165       N  0.72646483  0.12104592  0.88283167    -0.55100
C1166       C  0.82110335  0.09106407  0.82624308     0.29000
C1167       C  0.74900192  0.10990184  0.83051539     0.29000
C1168       C  0.83872772  0.09361213  0.92609871     0.29000
C1169       C  0.76491713  0.10262000  0.93048984     0.29000
C1170       C  0.88841252  0.09381559  0.85364335     0.37600
C1171       C  0.89542408  0.09944566  0.89234294     0.37600
C1172       C  0.69951447  0.13539763  0.86532266     0.37600
C1173       C  0.70479572  0.13050219  0.90410284     0.37600
C1174       C  0.79920935  0.07829870  0.80485603    -0.19900
C1175       C  0.75384533  0.09021296  0.80750889    -0.19900
C1176       C  0.82651233  0.08034898  0.94914218    -0.19900
C1177       C  0.77971422  0.08569238  0.95186865    -0.19900
C1178       C  0.93546778  0.09979503  0.85813748    -0.20900
C1179       C  0.93983912  0.10392380  0.88269100    -0.20900
C1180       C  0.66013654  0.15365914  0.87553072    -0.20900
C1181       C  0.66355213  0.15068499  0.90008331    -0.20900
C1182       C  0.86886014  0.08663381  0.83063350    -0.16300
C1183       C  0.70739622  0.12726533  0.84033418    -0.16300
C1184       C  0.72065569  0.11892583  0.92693489    -0.16300
C1185       C  0.88437213  0.09920391  0.91712035    -0.16300
H1186       H  0.81437372  0.06221299  0.78895251     0.16600
H1187       H  0.72738742  0.08470761  0.79402490     0.16600
H1188       H  0.84925752  0.06926857  0.96275440     0.16600
H1189       H  0.75931748  0.07963959  0.96807810     0.16600
H1190       H  0.96372035  0.10142877  0.84510868     0.14900
H1191       H  0.97201358  0.10875159  0.89233494     0.14900
H1192       H  0.63147559  0.16685998  0.86622956     0.14900
H1193       H  0.63821496  0.16143268  0.91339578     0.14900
H1194       H  0.79801054  0.12766733  0.85802717     0.28200
H1195       H  0.80198689  0.12472284  0.89903148     0.28200
O1196       O  0.60904408  0.44625705  0.72500550    -0.78100
O1197       O  0.57196478  0.09764532  0.78558854    -0.78100
O1198       O  0.58663682  0.04462314  0.71515626    -0.78100
O1199       O  0.60930911  0.45167128  0.80625271    -0.78100
O1200       O  0.61487436  0.07943701  0.74573178    -0.78200
O1201       O  0.63990373  0.43341162  0.77061893    -0.78100
O1202       O  0.60917172  0.04469485  0.80348379    -0.78100
O1203       O  0.54638604  0.46347632  0.70709218    -0.78100
C1204       C  0.58344930  0.44198511  0.70692171     1.11600
C1205       C  0.60369688  0.08619608  0.79954293     1.11500
C1206       C  0.61524112  0.07460642  0.72349215     1.11600
C1207       C  0.64204612  0.43592303  0.79330981     1.11500
O1208       O  0.54909949  0.39487389  0.78389673    -0.78100
O1209       O  0.52475453  0.10766648  0.73896841    -0.78200
O1210       O  0.47840586  0.47227001  0.74399291    -0.78100
O1211       O  0.50994930  0.04185046  0.80459008    -0.78100
O1212       O  0.48698270  0.04559822  0.76789003    -0.78100
O1213       O  0.51788632  0.40986808  0.73956527    -0.78100
O1214       O  0.50879945  0.45026076  0.79931095    -0.78100
O1215       O  0.49621614  0.05026359  0.71433923    -0.78100
Co1216     Co  0.57920222  0.42577123  0.75506170     1.51500
Co1217     Co  0.55177263  0.05801954  0.75623911     1.51700
Co1218     Co  0.53334246  0.51115196  0.73363813     1.51600
Co1219     Co  0.55989458  0.49656503  0.80065696     1.51500
O1220       O  0.56917808  0.49371302  0.76390748    -1.40000
C1221       C  0.01381938  0.40841785  0.79538068     1.11500
C1222       C  0.99940832  0.09323420  0.72102540     1.11600
C1223       C  0.98004536  0.42973663  0.73890997     1.11500
C1224       C  0.97833115  0.04832811  0.79004751     1.11500
N1225       N  0.78912356  0.13244272  0.17508397    -0.34600
N1226       N  0.71887036  0.14948967  0.14203095    -0.55100
N1227       N  0.78877757  0.14257894  0.10150982    -0.34600
N1228       N  0.85922246  0.13006941  0.13554127    -0.55100
C1229       C  0.75471662  0.14226204  0.19100110     0.29000
C1230       C  0.82856354  0.13246415  0.18758534     0.29000
C1231       C  0.75230272  0.15863623  0.09024010     0.29000
C1232       C  0.82708850  0.14960878  0.08718187     0.29000
C1233       C  0.69123667  0.14289232  0.16176665     0.37600
C1234       C  0.69085119  0.14865145  0.12284263     0.37600
C1235       C  0.88400561  0.11523953  0.15366439     0.37600
C1236       C  0.88468793  0.12326371  0.11522562     0.37600
C1237       C  0.77265547  0.14855628  0.21392206    -0.19900
C1238       C  0.81930612  0.14242749  0.21176926    -0.19900
C1239       C  0.76737437  0.17506234  0.06810931    -0.19900
C1240       C  0.81444172  0.16945541  0.06623426    -0.19900
C1241       C  0.64529105  0.13883154  0.15515907    -0.20900
C1242       C  0.64497960  0.14262797  0.13055736    -0.20900
C1243       C  0.92558961  0.09924116  0.14483258    -0.20900
C1244       C  0.92611837  0.10463244  0.12048328    -0.20900
C1245       C  0.70716062  0.14163890  0.18568133    -0.16300
C1246       C  0.87150309  0.11899942  0.17824029    -0.16300
C1247       C  0.87267123  0.13719126  0.09234959    -0.16300
C1248       C  0.70548047  0.15659584  0.09875425    -0.16300
H1249       H  0.75392433  0.15582269  0.23054475     0.16600
H1250       H  0.84346448  0.14389490  0.22645528     0.16600
H1251       H  0.74662489  0.18968003  0.05466181     0.16600
H1252       H  0.83674931  0.17884401  0.05114818     0.16600
H1253       H  0.61519476  0.13385423  0.16682835     0.14900
H1254       H  0.61435922  0.14126410  0.11960277     0.14900
H1255       H  0.95317061  0.08591361  0.15491678     0.14900
H1256       H  0.95394057  0.09613007  0.10810873     0.14900
H1257       H  0.78533092  0.11979974  0.15750017     0.28200
H1258       H  0.78619852  0.12389065  0.11703378     0.28200
N1259       N  0.79430700  0.35680241  0.09384142    -0.34600
N1260       N  0.86633444  0.37112739  0.13084293    -0.55100
N1261       N  0.80416527  0.42665521  0.15902198    -0.34600
N1262       N  0.73186811  0.40885048  0.12184070    -0.55100
C1263       C  0.82485793  0.32594005  0.08648168     0.29000
C1264       C  0.75484913  0.34605611  0.08167967     0.29000
C1265       C  0.83857743  0.42338161  0.17520821     0.29000
C1266       C  0.76568396  0.43972910  0.17125776     0.29000
C1267       C  0.89125730  0.35169297  0.11268976     0.37600
C1268       C  0.89684962  0.38783162  0.14768789     0.37600
C1269       C  0.70621827  0.40335247  0.10170056     0.37600
C1270       C  0.70963343  0.43758621  0.13697155     0.37600
C1271       C  0.80461020  0.29506614  0.06960031    -0.19900
C1272       C  0.76035534  0.30765413  0.06662526    -0.19900
C1273       C  0.82202010  0.43605123  0.19792560    -0.19900
C1274       C  0.77620527  0.44597107  0.19548781    -0.19900
C1275       C  0.93786621  0.35515456  0.11821952    -0.20900
C1276       C  0.94139735  0.37783499  0.14041629    -0.20900
C1277       C  0.66747032  0.42890465  0.10391814    -0.20900
C1278       C  0.66949783  0.45053291  0.12631662    -0.20900
C1279       C  0.87213000  0.32885493  0.09185697    -0.16300
C1280       C  0.71518431  0.37178192  0.08260362    -0.16300
C1281       C  0.72183531  0.44770900  0.16117686    -0.16300
C1282       C  0.88463184  0.40997174  0.16996469    -0.16300
H1283       H  0.82065521  0.26730872  0.05977125     0.16600
H1284       H  0.73556915  0.29100560  0.05431406     0.16600
H1285       H  0.84080826  0.43743358  0.21461904     0.16600
H1286       H  0.75328961  0.45679353  0.20996798     0.16600
H1287       H  0.96624812  0.34212830  0.10753783     0.14900
H1288       H  0.97311778  0.38594982  0.15009490     0.14900
H1289       H  0.63991901  0.43050369  0.09112030     0.14900
H1290       H  0.64371027  0.47236103  0.13411861     0.14900
H1291       H  0.80257049  0.38713092  0.10362010     0.28200
H1292       H  0.80763757  0.42377767  0.14042386     0.28200
C1293       C  0.63530290  0.11858476  0.81174851    -0.11200
C1294       C  0.66804465  0.12911833  0.82444861    -0.12800
C1295       C  0.90039287  0.07281467  0.81120182    -0.11200
C1296       C  0.93360486  0.06122815  0.79927939    -0.12800
C1297       C  0.70971594  0.39928209  0.81635788    -0.11200
C1298       C  0.68052319  0.41689974  0.80498143    -0.12800
C1299       C  0.97888465  0.37753538  0.80542888    -0.11200
C1300       C  0.94565296  0.36380764  0.81711890    -0.12800
C1301       C  0.64026269  0.17728658  0.06874363    -0.11200
C1302       C  0.66979921  0.16594229  0.08195030    -0.12800
C1303       C  0.91076220  0.14293689  0.07470548    -0.11200
C1304       C  0.94598939  0.15211438  0.06310518    -0.12800
C1305       C  0.65522091  0.34312527  0.04921898    -0.11200
C1306       C  0.68085322  0.36106912  0.06417169    -0.12800
C1307       C  0.92030599  0.29377887  0.05564596    -0.11200
C1308       C  0.90154927  0.30913224  0.07344716    -0.12800
C1309       C  0.68746817  0.29574093  0.92642351    -0.11200
C1310       C  0.65564245  0.28024180  0.93858876    -0.12800
C1311       C  0.95516884  0.30312341  0.95231632    -0.11200
C1312       C  0.92792980  0.31475428  0.93769534    -0.12800
C1313       C  0.66887497  0.14194810  0.96494301    -0.11200
C1314       C  0.69167903  0.12776330  0.94809676    -0.12800
C1315       C  0.94463619  0.12913070  0.94980995    -0.11200
C1316       C  0.92021623  0.11112518  0.93442404    -0.12800
C1317       C  0.95123271  0.42940268  0.20302565    -0.11200
C1318       C  0.92094581  0.41876768  0.18833621    -0.12800
C1319       C  0.68478773  0.46349798  0.17689546    -0.11200
C1320       C  0.65188312  0.47300815  0.18945959    -0.12800
C1321       C  0.93253128  0.09019715  0.20739723    -0.11200
C1322       C  0.90468168  0.10596046  0.19503426    -0.12800
C1323       C  0.65044152  0.11979867  0.22227384    -0.06400
C1324       C  0.67402647  0.13486176  0.20570625    -0.12800
C1325       C  0.63774892  0.10852018  0.70784877    -0.11200
C1326       C  0.64660394  0.13876491  0.69356215    -0.12800
C1327       C  0.60372046  0.37256645  0.67739713    -0.11200
C1328       C  0.59249580  0.40601473  0.68922055    -0.12800
C1329       C  0.97466206  0.12528977  0.70842899    -0.11200
C1330       C  0.95556328  0.15242820  0.69700638    -0.12800
C1331       C  0.92366795  0.37957966  0.71191111    -0.11200
C1332       C  0.94237000  0.40473938  0.72699795    -0.12800
C1333       C  0.90484970  0.15330714  0.57664258    -0.11200
C1334       C  0.89531633  0.11994513  0.56353750    -0.12800
C1335       C  0.90014722  0.39410162  0.58831239    -0.11200
C1336       C  0.89149033  0.42402077  0.57485783    -0.12800
C1337       C  0.72617208  0.13515339  0.57369524    -0.11200
C1338       C  0.73800375  0.11502011  0.55555342    -0.12800
C1339       C  0.73376356  0.38712341  0.55246813    -0.11200
C1340       C  0.71642854  0.36186987  0.56726607    -0.12800
C1341       C  0.67362815  0.09631243  0.30475662    -0.11200
C1342       C  0.68874315  0.13064604  0.31528081    -0.12800
C1343       C  0.65843800  0.36574342  0.32086282    -0.11200
C1344       C  0.64289954  0.39338759  0.30796619    -0.12800
C1345       C  0.75412430  0.10739251  0.44554095    -0.11200
C1346       C  0.74282123  0.13820527  0.43350062    -0.12800
C1347       C  0.73303420  0.37514446  0.43976025    -0.11200
C1348       C  0.74621156  0.40156294  0.45592986    -0.12800
C1349       C  0.97548057  0.15668919  0.31586526    -0.11200
C1350       C  0.98880579  0.12588360  0.30268771    -0.12800
C1351       C  0.92685754  0.38857672  0.31549869    -0.11200
C1352       C  0.93983269  0.42176265  0.30431551    -0.12800
C1353       C  0.90385698  0.13325540  0.45494851    -0.11200
C1354       C  0.91797576  0.15769218  0.43887378    -0.12800
C1355       C  0.91325407  0.42605955  0.45068238    -0.11200
C1356       C  0.92219072  0.39444149  0.43721184    -0.12800
N1357       N  0.92496279  0.77306270  0.41312503    -0.34600
N1358       N  0.92157801  0.84060248  0.37586659    -0.55100
N1359       N  0.93477320  0.77015517  0.33907756    -0.34600
N1360       N  0.94193594  0.70274672  0.37688312    -0.55100
C1361       C  0.93138514  0.81233836  0.42670634     0.29000
C1362       C  0.93264729  0.73767601  0.42727038     0.29000
C1363       C  0.93936808  0.80846194  0.32592715     0.29000
C1364       C  0.95643505  0.73643061  0.32668643     0.29000
C1365       C  0.91310619  0.86760194  0.39550775     0.37600
C1366       C  0.91106013  0.86462759  0.35661414     0.37600
C1367       C  0.93255603  0.67513692  0.39566680     0.37600
C1368       C  0.94664437  0.67502563  0.35699986     0.37600
C1369       C  0.94305328  0.80167923  0.44987306    -0.19900
C1370       C  0.94335067  0.75448960  0.45028929    -0.19900
C1371       C  0.96331771  0.79866574  0.30469104    -0.19900
C1372       C  0.97418831  0.75334780  0.30519649    -0.19900
C1373       C  0.89689069  0.90898014  0.38871906    -0.20900
C1374       C  0.89539825  0.90699785  0.36407822    -0.20900
C1375       C  0.93176435  0.62952027  0.38771186    -0.20900
C1376       C  0.94122270  0.62942453  0.36330779    -0.20900
C1377       C  0.92318203  0.85698621  0.41930164    -0.16300
C1378       C  0.92836192  0.69065192  0.42008647    -0.16300
C1379       C  0.95843586  0.69023162  0.33356269    -0.16300
C1380       C  0.92256254  0.85194586  0.33263860    -0.16300
H1381       H  0.94963921  0.82536826  0.46505253     0.16600
H1382       H  0.95086379  0.73481018  0.46572035     0.16600
H1383       H  0.97251571  0.82188498  0.29042153     0.16600
H1384       H  0.99302222  0.73492875  0.29126292     0.16600
H1385       H  0.88796959  0.93799597  0.40025531     0.14900
H1386       H  0.88580645  0.93439967  0.35291048     0.14900
H1387       H  0.92629874  0.59947470  0.39846671     0.14900
H1388       H  0.94388046  0.59919877  0.35156052     0.14900
H1389       H  0.91076027  0.76999880  0.39609212     0.28200
H1390       H  0.91445426  0.76615607  0.35455601     0.28200
N1391       N  0.69366670  0.75183805  0.34015705    -0.34600
N1392       N  0.70036630  0.82367244  0.37867461    -0.55100
N1393       N  0.72770452  0.75630014  0.41196087    -0.34600
N1394       N  0.71765780  0.68456968  0.37418656    -0.55100
C1395       C  0.67146855  0.78562964  0.33002184     0.29000
C1396       C  0.68276088  0.71226240  0.32744299     0.29000
C1397       C  0.72421317  0.79309711  0.42734329     0.29000
C1398       C  0.72915251  0.71858953  0.42534783     0.29000
C1399       C  0.69308887  0.84971648  0.35960274     0.37600
C1400       C  0.71450794  0.85276579  0.39704735     0.37600
C1401       C  0.71912086  0.65803902  0.35378587     0.37600
C1402       C  0.73388729  0.65954927  0.39176804     0.37600
C1403       C  0.64676657  0.76740176  0.31035185    -0.19900
C1404       C  0.65388936  0.72111878  0.30873368    -0.19900
C1405       C  0.72441726  0.77866710  0.45084942    -0.19900
C1406       C  0.72731188  0.73169859  0.44958493    -0.19900
C1407       C  0.70217258  0.89574533  0.36597966    -0.20900
C1408       C  0.71590774  0.89765195  0.38962460    -0.20900
C1409       C  0.73648603  0.61598715  0.35840566    -0.20900
C1410       C  0.74575063  0.61689971  0.38248230    -0.20900
C1411       C  0.67509196  0.83278735  0.33717830    -0.16300
C1412       C  0.69921099  0.66871504  0.33194009    -0.16300
C1413       C  0.73493551  0.67316098  0.41635831    -0.16300
C1414       C  0.72335467  0.83950559  0.42078497    -0.16300
H1415       H  0.62588540  0.78557147  0.29833021     0.16600
H1416       H  0.63944650  0.69679557  0.29530372     0.16600
H1417       H  0.72282719  0.79978537  0.46725466     0.16600
H1418       H  0.72865938  0.70980206  0.46481178     0.16600
H1419       H  0.69884669  0.92494518  0.35482662     0.14900
H1420       H  0.72514563  0.92858962  0.40024201     0.14900
H1421       H  0.74064308  0.58709534  0.34589637     0.14900
H1422       H  0.75891094  0.58898195  0.39210604     0.14900
H1423       H  0.71849401  0.75637950  0.35342948     0.28200
H1424       H  0.73380197  0.75758710  0.39356375     0.28200
O1425       O  0.89889496  0.96269995  0.48765252    -0.78100
O1426       O  0.88687066  0.57560984  0.52747978    -0.78100
O1427       O  0.87339308  0.56296906  0.47102342    -0.78100
O1428       O  0.83286197  0.96883055  0.56264163    -0.78100
O1429       O  0.85956723  0.62818590  0.49067321    -0.78200
O1430       O  0.89011116  0.95632232  0.53695175    -0.78100
O1431       O  0.83665133  0.56229682  0.55742579    -0.78100
O1432       O  0.85294181  0.97384719  0.45814595    -0.78100
C1433       C  0.88948466  0.95806057  0.46569028     1.11600
C1434       C  0.87385622  0.58228823  0.54921211     1.11500
C1435       C  0.87883540  0.60731659  0.47315381     1.11600
C1436       C  0.87223814  0.95335515  0.55779159     1.11500
O1437       O  0.80169208  0.90828293  0.53131100    -0.78100
O1438       O  0.78027471  0.57898952  0.48145730    -0.78200
O1439       O  0.76135905  0.97213405  0.47682853    -0.78100
O1440       O  0.74893373  0.55033147  0.53129867    -0.78100
O1441       O  0.79756370  0.60831008  0.52722454    -0.78100
O1442       O  0.80733488  0.91558801  0.48249501    -0.78100
O1443       O  0.74842266  0.95877540  0.53619446    -0.78100
O1444       O  0.79512253  0.54038708  0.44738969    -0.78100
Co1445     Co  0.84908984  0.94024165  0.50956870     1.51500
Co1446     Co  0.83645558  0.57201624  0.50399048     1.51700
Co1447     Co  0.81480233  0.51794225  0.47689311     1.51600
Co1448     Co  0.79263911  0.51007286  0.54481276     1.51500
O1449       O  0.82419976  0.50472472  0.51190667    -1.40000
C1450       C  0.76143638  0.91871527  0.53823874     1.11500
C1451       C  0.77663347  0.57359107  0.45840946     1.11600
C1452       C  0.77116058  0.93052493  0.47343085     1.11500
C1453       C  0.75979660  0.59175927  0.53572412     1.11500
N1454       N  0.92359544  0.76642962  0.67942496    -0.34600
N1455       N  0.90858680  0.83959019  0.64736779    -0.55100
N1456       N  0.91194705  0.77269093  0.60619875    -0.34600
N1457       N  0.92179946  0.69921393  0.63904477    -0.55100
C1458       C  0.91373188  0.80009258  0.69581676     0.29000
C1459       C  0.92437211  0.72698500  0.69125835     0.29000
C1460       C  0.90034114  0.81074856  0.59501364     0.29000
C1461       C  0.90314106  0.73574118  0.59096374     0.29000
C1462       C  0.91651756  0.86498811  0.66795763     0.37600
C1463       C  0.91298940  0.86890675  0.62909565     0.37600
C1464       C  0.93696491  0.67269020  0.65628375     0.37600
C1465       C  0.92501466  0.67454844  0.61807019     0.37600
C1466       C  0.40783179  0.78163287  0.71838794    -0.19900
C1467       C  0.41474603  0.73544108  0.71551362    -0.19900
C1468       C  0.88486952  0.79794879  0.57208837    -0.19900
C1469       C  0.88648337  0.75076023  0.56958454    -0.19900
C1470       C  0.92505094  0.91081297  0.66277770    -0.20900
C1471       C  0.92270836  0.91331549  0.63820237    -0.20900
C1472       C  0.94905141  0.63064780  0.64628770    -0.20900
C1473       C  0.94102797  0.63165831  0.62211806    -0.20900
C1474       C  0.91557960  0.84749971  0.69138082    -0.16300
C1475       C  0.93776759  0.68470206  0.68108428    -0.16300
C1476       C  0.91186659  0.68928149  0.59545240    -0.16300
C1477       C  0.90556040  0.85679891  0.60448048    -0.16300
H1478       H  0.40079062  0.79982706  0.73528452     0.16600
H1479       H  0.41377568  0.71102669  0.72972128     0.16600
H1480       H  0.87368259  0.82029034  0.55849834     0.16600
H1481       H  0.87697881  0.72996895  0.55370205     0.16600
H1482       H  0.93235628  0.93944831  0.67535969     0.14900
H1483       H  0.92765208  0.94434356  0.62817816     0.14900
H1484       H  0.96163293  0.60191000  0.65547852     0.14900
H1485       H  0.94672394  0.60407345  0.60900629     0.14900
H1486       H  0.93619340  0.77101711  0.66205811     0.28200
H1487       H  0.92918573  0.77285935  0.62236452     0.28200
N1488       N  0.64234324  0.75276793  0.66268429    -0.34600
N1489       N  0.66446369  0.81996559  0.62498194    -0.55100
N1490       N  0.70438124  0.74919414  0.59618261    -0.34600
N1491       N  0.68642666  0.68208446  0.63377151    -0.55100
C1492       C  0.62843856  0.79188303  0.67397394     0.29000
C1493       C  0.64245850  0.71927355  0.67913250     0.29000
C1494       C  0.72158808  0.78644137  0.58455244     0.29000
C1495       C  0.72863210  0.71356599  0.58818701     0.29000
C1496       C  0.63667288  0.84523232  0.63923301     0.37600
C1497       C  0.67235408  0.84327556  0.60456978     0.37600
C1498       C  0.66964198  0.65562653  0.65174720     0.37600
C1499       C  0.69647019  0.65332605  0.61497639     0.37600
C1500       C  0.61847564  0.78283300  0.69792780    -0.19900
C1501       C  0.62728007  0.73732352  0.70115631    -0.19900
C1502       C  0.75772305  0.77437460  0.56926388    -0.19900
C1503       C  0.76199220  0.72815226  0.57146000    -0.19900
C1504       C  0.62711830  0.88510220  0.62778313    -0.20900
C1505       C  0.64978959  0.88382029  0.60583731    -0.20900
C1506       C  0.67054785  0.60957288  0.64453759    -0.20900
C1507       C  0.68705423  0.60816972  0.62112341    -0.20900
C1508       C  0.62292595  0.83495745  0.66311354    -0.16300
C1509       C  0.65352164  0.67239752  0.67450417    -0.16300
C1510       C  0.71683799  0.66756560  0.59302727    -0.16300
C1511       C  0.70245251  0.82969429  0.58571872    -0.16300
H1512       H  0.60573611  0.80645093  0.71166375     0.16600
H1513       H  0.62244251  0.71942918  0.71779654     0.16600
H1514       H  0.77786779  0.79620583  0.55718811     0.16600
H1515       H  0.78600486  0.70733323  0.56140448     0.16600
H1516       H  0.60644625  0.91262272  0.63465024     0.14900
H1517       H  0.65016264  0.90994959  0.59251706     0.14900
H1518       H  0.65956916  0.58007340  0.65487296     0.14900
H1519       H  0.69223892  0.57750055  0.61004992     0.14900
H1520       H  0.64807183  0.74861578  0.64434509     0.28200
H1521       H  0.67331327  0.74619550  0.60583501     0.28200
O1522       O  0.51342955  0.95401329  0.30120915    -0.78100
O1523       O  0.59452053  0.01835669  0.20739325    -0.78100
O1524       O  0.97906680  0.95193068  0.24211103    -0.78100
O1525       O  0.62721231  0.93048547  0.27235574    -0.78100
O1526       O  0.51399556  0.98181263  0.21291357    -0.78200
O1527       O  0.60707877  0.96237873  0.30736309    -0.78100
O1528       O  0.61504282  0.95767906  0.22568175    -0.78100
O1529       O  0.95943225  0.98911946  0.28238360    -0.78100
C1530       C  0.97175515  0.95674660  0.29538094     1.11600
C1531       C  0.61722779  0.98221416  0.20744829     1.11500
C1532       C  0.98424191  0.95248525  0.21996455     1.11600
C1533       C  0.62397646  0.92976410  0.29506512     1.11500
O1534       O  0.60197386  0.55988497  0.30045682    -0.78100
O1535       O  0.50846628  0.57098554  0.21435453    -0.78200
O1536       O  0.01061751  0.57797402  0.26921834    -0.78100
O1537       O  0.64874152  0.54901047  0.23970249    -0.78100
O1538       O  0.58619812  0.58801618  0.24431613    -0.78100
O1539       O  0.50909312  0.55058217  0.30471267    -0.78100
O1540       O  0.66064695  0.52337574  0.28524380    -0.78100
O1541       O  0.95022987  0.54128530  0.23750660    -0.78100
Co1542     Co  0.55859467  0.00619412  0.30048343     1.51500
Co1543     Co  0.54674350  0.03314885  0.23329692     1.51700
Co1544     Co  0.99975951  0.01427586  0.25497310     1.51600
Co1545     Co  0.63317879  0.98985242  0.25609700     1.51500
O1546       O  0.56388739  0.99730118  0.26345111    -1.40000
C1547       C  0.64442783  0.55820164  0.29598619     1.11500
C1548       C  0.96512522  0.56703597  0.22030780     1.11600
C1549       C  0.00372823  0.58355539  0.29150172     1.11500
C1550       C  0.62832487  0.58599834  0.23786436     1.11500
O1551       O  0.94509311  0.66325111  0.98856096    -0.78100
O1552       O  0.60378556  0.68221614  0.03223608    -0.78100
O1553       O  0.59852477  0.66911472  0.98092515    -0.78100
O1554       O  0.49775663  0.71536068  0.05863029    -0.78100
O1555       O  0.66475387  0.69954583  0.99548115    -0.78200
O1556       O  0.99721297  0.66146333  0.02953043    -0.78100
O1557       O  0.59198963  0.73544462  0.06026481    -0.78100
O1558       O  0.50666474  0.67967307  0.96370588    -0.78100
C1559       C  0.96689198  0.65785025  0.96846970     1.11600
C1560       C  0.60927422  0.69821296  0.05344226     1.11500
C1561       C  0.64332090  0.66984429  0.98183610     1.11600
C1562       C  0.98493482  0.67523135  0.05054385     1.11500
O1563       O  0.94060795  0.73725470  0.02665301    -0.78100
O1564       O  0.62225736  0.76925079  0.97719959    -0.78200
O1565       O  0.52687853  0.78056227  0.96687087    -0.78100
O1566       O  0.58265327  0.81800937  0.03573009    -0.78100
O1567       O  0.64144221  0.77507086  0.02638576    -0.78100
O1568       O  0.96295160  0.75042482  0.98179620    -0.78100
O1569       O  0.48780001  0.79810832  0.03367570    -0.78100
O1570       O  0.59153992  0.72886064  0.94604853    -0.78100
Co1571     Co  0.98612256  0.70549435  0.00442118     1.51500
Co1572     Co  0.60855075  0.72555253  0.00559502     1.51700
Co1573     Co  0.56021247  0.72646112  0.97649435     1.51600
Co1574     Co  0.54023430  0.76641135  0.04538887     1.51500
O1575       O  0.54329307  0.73987035  0.01152344    -1.40000
C1576       C  0.94891187  0.77714201  0.03647680     1.11500
C1577       C  0.62176456  0.75858289  0.95433173     1.11600
C1578       C  0.98343672  0.77860553  0.96822582     1.11500
C1579       C  0.62560669  0.81207372  0.03531722     1.11500
N1580       N  0.81220107  0.82505498  0.91011291    -0.34600
N1581       N  0.88826724  0.84067612  0.87647640    -0.55100
N1582       N  0.82278966  0.86507937  0.83991021    -0.34600
N1583       N  0.74646543  0.84476233  0.87256681    -0.55100
C1584       C  0.84784536  0.81104079  0.92298167     0.29000
C1585       C  0.77246824  0.80537990  0.91933605     0.29000
C1586       C  0.86126479  0.86102126  0.82589988     0.29000
C1587       C  0.78696854  0.87185053  0.82532292     0.29000
C1588       C  0.91308720  0.83961097  0.89684238     0.37600
C1589       C  0.91844176  0.85317933  0.85872608     0.37600
C1590       C  0.71649381  0.83608340  0.89099069     0.37600
C1591       C  0.72281926  0.86594839  0.85582891     0.37600
C1592       C  0.83052336  0.78286067  0.94095029    -0.19900
C1593       C  0.78307532  0.77899739  0.93854756    -0.19900
C1594       C  0.84964648  0.86545521  0.80198823    -0.19900
C1595       C  0.80290600  0.87268027  0.80166429    -0.19900
C1596       C  0.95933878  0.85123338  0.89198412    -0.20900
C1597       C  0.96279453  0.85953781  0.86785532    -0.20900
C1598       C  0.67324954  0.85088259  0.88572817    -0.20900
C1599       C  0.67734465  0.87016660  0.86358267    -0.20900
C1600       C  0.89542200  0.82369312  0.91908431    -0.16300
C1601       C  0.72685256  0.81291209  0.91192621    -0.16300
C1602       C  0.74079648  0.87888337  0.83303529    -0.16300
C1603       C  0.90706105  0.85772882  0.83427338    -0.16300
H1604       H  0.85005638  0.76635423  0.95424590     0.16600
H1605       H  0.75908451  0.75934170  0.94986325     0.16600
H1606       H  0.87268198  0.86479747  0.78641891     0.16600
H1607       H  0.78295560  0.87795005  0.78582302     0.16600
H1608       H  0.98782217  0.85251376  0.90438871     0.14900
H1609       H  0.99444580  0.86919008  0.85817044     0.14900
H1610       H  0.64201444  0.84819335  0.89673011     0.14900
H1611       H  0.64969830  0.88476635  0.85410038     0.14900
H1612       H  0.81461637  0.85029283  0.89747063     0.28200
H1613       H  0.82197071  0.86848079  0.85848221     0.28200
N1614       N  0.79039286  0.61023029  0.84177820    -0.34600
N1615       N  0.86421983  0.59267426  0.87474720    -0.55100
N1616       N  0.80135161  0.60745520  0.91494250    -0.34600
N1617       N  0.72670505  0.62134015  0.88292156    -0.55100
C1618       C  0.82097748  0.59001930  0.82645627     0.29000
C1619       C  0.74897935  0.60921053  0.83068366     0.29000
C1620       C  0.83898404  0.59431228  0.92623242     0.29000
C1621       C  0.76518426  0.60328282  0.93060135     0.29000
C1622       C  0.88843590  0.59306760  0.85376794     0.37600
C1623       C  0.89559414  0.59945855  0.89243630     0.37600
C1624       C  0.69984550  0.63571908  0.86538302     0.37600
C1625       C  0.70515828  0.63115548  0.90417952     0.37600
C1626       C  0.79889417  0.57671014  0.80519467    -0.19900
C1627       C  0.75359256  0.58884009  0.80782054    -0.19900
C1628       C  0.82678754  0.58115078  0.94929257    -0.19900
C1629       C  0.77998680  0.58644959  0.95200279    -0.19900
C1630       C  0.93553885  0.59872595  0.85820885    -0.20900
C1631       C  0.94000460  0.60334719  0.88274284    -0.20900
C1632       C  0.66068245  0.65444911  0.87556242    -0.20900
C1633       C  0.66411222  0.65166853  0.90012962    -0.20900
C1634       C  0.86874827  0.58558833  0.83080835    -0.16300
C1635       C  0.70752731  0.62704463  0.84042324    -0.16300
C1636       C  0.72090519  0.61949781  0.92701633    -0.16300
C1637       C  0.88459822  0.59968626  0.91721631    -0.16300
H1638       H  0.81388945  0.56010346  0.78939490     0.16600
H1639       H  0.72702129  0.58302282  0.79441728     0.16600
H1640       H  0.84953419  0.57009631  0.96291089     0.16600
H1641       H  0.75958808  0.58041434  0.96821311     0.16600
H1642       H  0.96377259  0.59979931  0.84516182     0.14900
H1643       H  0.97222759  0.60804706  0.89235205     0.14900
H1644       H  0.63212144  0.66777393  0.86623412     0.14900
H1645       H  0.63890516  0.66273823  0.91343232     0.14900
H1646       H  0.79822774  0.62758709  0.85800301     0.28200
H1647       H  0.80225735  0.62528518  0.89911221     0.28200
O1648       O  0.60956549  0.94650746  0.72522330    -0.78100
O1649       O  0.57203415  0.59743803  0.78561512    -0.78100
O1650       O  0.58583933  0.54457681  0.71511432    -0.78100
O1651       O  0.60904158  0.95188405  0.80644872    -0.78100
O1652       O  0.61462252  0.57917985  0.74562796    -0.78200
O1653       O  0.63982378  0.93341368  0.77089354    -0.78100
O1654       O  0.60929400  0.54443599  0.80344331    -0.78100
O1655       O  0.54719360  0.96370587  0.70704626    -0.78100
C1656       C  0.58425767  0.94224332  0.70703448     1.11600
C1657       C  0.60379463  0.58594987  0.79955319     1.11500
C1658       C  0.61465751  0.57444354  0.72338674     1.11600
C1659       C  0.64181266  0.93598182  0.79358793     1.11500
O1660       O  0.54877789  0.89507671  0.78389237    -0.78100
O1661       O  0.52434612  0.60744659  0.73901911    -0.78200
O1662       O  0.47867989  0.97259483  0.74365932    -0.78100
O1663       O  0.51006490  0.54148570  0.80466984    -0.78100
O1664       O  0.48692134  0.54536649  0.76801473    -0.78100
O1665       O  0.51815915  0.91015245  0.73944329    -0.78100
O1666       O  0.50862055  0.95057000  0.79934317    -0.78100
O1667       O  0.49535640  0.54993658  0.71458796    -0.78100
Co1668     Co  0.57928870  0.92595546  0.75515179     1.51500
Co1669     Co  0.55161422  0.55783647  0.75626753     1.51700
Co1670     Co  0.53385577  0.01137988  0.73352531     1.51600
Co1671     Co  0.55974418  0.99684545  0.80069491     1.51500
O1672       O  0.56925199  0.99389636  0.76395066    -1.40000
C1673       C  0.01358023  0.90872762  0.79540349     1.11500
C1674       C  0.99872236  0.59294735  0.72118247     1.11600
C1675       C  0.98036332  0.93002553  0.73865296     1.11500
C1676       C  0.97830017  0.54781496  0.79017906     1.11500
N1677       N  0.78956063  0.63198078  0.17509196    -0.34600
N1678       N  0.71927988  0.64960308  0.14222224    -0.55100
N1679       N  0.78896504  0.64263625  0.10150566    -0.34600
N1680       N  0.85955350  0.62996666  0.13537261    -0.55100
C1681       C  0.75525128  0.64168095  0.19109576     0.29000
C1682       C  0.82909084  0.63206490  0.18751051     0.29000
C1683       C  0.75240663  0.65863707  0.09029060     0.29000
C1684       C  0.82712567  0.64934629  0.08702909     0.29000
C1685       C  0.69169723  0.64294398  0.16197358     0.37600
C1686       C  0.69117131  0.64907559  0.12308146     0.37600
C1687       C  0.88461997  0.61553508  0.15348575     0.37600
C1688       C  0.88509389  0.62352166  0.11504831     0.37600
C1689       C  0.77331889  0.64783228  0.21399013    -0.19900
C1690       C  0.81996707  0.64183324  0.21173101    -0.19900
C1691       C  0.76724646  0.67462611  0.06802942    -0.19900
C1692       C  0.81426131  0.66883331  0.06602192    -0.19900
C1693       C  0.64571804  0.63917693  0.15543139    -0.20900
C1694       C  0.64531672  0.64321960  0.13085299    -0.20900
C1695       C  0.92647402  0.60019697  0.14464476    -0.20900
C1696       C  0.92685892  0.60554340  0.12029966    -0.20900
C1697       C  0.70769084  0.64134736  0.18585039    -0.16300
C1698       C  0.87208209  0.61899182  0.17806405    -0.16300
C1699       C  0.87281097  0.63715837  0.09215651    -0.16300
C1700       C  0.70568961  0.65695143  0.09896718    -0.16300
H1701       H  0.75469876  0.65504572  0.23065298     0.16600
H1702       H  0.84424127  0.64335723  0.22636634     0.16600
H1703       H  0.74638249  0.68909970  0.05458340     0.16600
H1704       H  0.83640393  0.67793771  0.05082628     0.16600
H1705       H  0.61565978  0.63419467  0.16712676     0.14900
H1706       H  0.61464397  0.64205557  0.11994492     0.14900
H1707       H  0.95431682  0.58732948  0.15472055     0.14900
H1708       H  0.95481839  0.59745009  0.10792720     0.14900
H1709       H  0.78569659  0.61947969  0.15748791     0.28200
H1710       H  0.78650002  0.62426178  0.11713022     0.28200
N1711       N  0.79450500  0.85686347  0.09394754    -0.34600
N1712       N  0.86647760  0.87072373  0.13098984    -0.55100
N1713       N  0.80450661  0.92663004  0.15908781    -0.34600
N1714       N  0.73230823  0.90932985  0.12184868    -0.55100
C1715       C  0.82483209  0.82566811  0.08674038     0.29000
C1716       C  0.75493904  0.84606064  0.08189037     0.29000
C1717       C  0.83890617  0.92335761  0.17527948     0.29000
C1718       C  0.76615467  0.94016945  0.17127991     0.29000
C1719       C  0.89135945  0.85135013  0.11280716     0.37600
C1720       C  0.89703090  0.88739629  0.14781630     0.37600
C1721       C  0.70666805  0.90386119  0.10170272     0.37600
C1722       C  0.71016333  0.93817132  0.13696236     0.37600
C1723       C  0.80434465  0.79452549  0.07007641    -0.19900
C1724       C  0.76014104  0.80727141  0.06707896    -0.19900
C1725       C  0.82248681  0.93650736  0.19795299    -0.19900
C1726       C  0.77676274  0.94672307  0.19548520    -0.19900
C1727       C  0.93798596  0.85480308  0.11829527    -0.20900
C1728       C  0.94156661  0.87741012  0.14051034    -0.20900
C1729       C  0.66803294  0.92958076  0.10388760    -0.20900
C1730       C  0.67010780  0.95125098  0.12628010    -0.20900
C1731       C  0.87213832  0.82853405  0.09200393    -0.16300
C1732       C  0.71546922  0.87206726  0.08267942    -0.16300
C1733       C  0.72234647  0.94826692  0.16117855    -0.16300
C1734       C  0.88486535  0.90963769  0.17006957    -0.16300
H1735       H  0.82022352  0.76649588  0.06039789     0.16600
H1736       H  0.73519034  0.79046980  0.05490726     0.16600
H1737       H  0.84131704  0.93806476  0.21463601     0.16600
H1738       H  0.75397611  0.95797927  0.20992618     0.16600
H1739       H  0.96634048  0.84182166  0.10757538     0.14900
H1740       H  0.97331436  0.88553986  0.15016284     0.14900
H1741       H  0.64049098  0.93121822  0.09108782     0.14900
H1742       H  0.64438879  0.97317679  0.13406609     0.14900
H1743       H  0.80299940  0.88738932  0.10351508     0.28200
H1744       H  0.80791989  0.92340876  0.14050036     0.28200
C1745       C  0.63539701  0.61829149  0.81182136    -0.11200
C1746       C  0.66812739  0.62880588  0.82454593    -0.12800
C1747       C  0.90018610  0.57161548  0.81137705    -0.11200
C1748       C  0.93346808  0.56024303  0.79945520    -0.12800
C1749       C  0.70947047  0.89941617  0.81673254    -0.11200
C1750       C  0.68021730  0.91695418  0.80534795    -0.12800
C1751       C  0.97863604  0.87791267  0.80550101    -0.11200
C1752       C  0.94545534  0.86424666  0.81724740    -0.12800
C1753       C  0.64043276  0.67773585  0.06902503    -0.11200
C1754       C  0.66994195  0.66640431  0.08223989    -0.12800
C1755       C  0.91080763  0.64296200  0.07445847    -0.11200
C1756       C  0.94612341  0.65217381  0.06293438    -0.12800
C1757       C  0.65552602  0.84339858  0.04927379    -0.11200
C1758       C  0.68114941  0.86136867  0.06423076    -0.12800
C1759       C  0.92034754  0.79365483  0.05573519    -0.11200
C1760       C  0.90145830  0.80885366  0.07353422    -0.12800
C1761       C  0.68803054  0.79535481  0.92655201    -0.11200
C1762       C  0.65618829  0.77973388  0.93865695    -0.12800
C1763       C  0.95578957  0.80346920  0.95234405    -0.11200
C1764       C  0.92848759  0.81509820  0.93775086    -0.12800
C1765       C  0.66899548  0.64197908  0.96506376    -0.11200
C1766       C  0.69180020  0.62807839  0.94815403    -0.12800
C1767       C  0.94488857  0.62959277  0.94986699    -0.11200
C1768       C  0.92049002  0.61163096  0.93447092    -0.12800
C1769       C  0.95141564  0.92910803  0.20312015    -0.11200
C1770       C  0.92117797  0.91840150  0.18842629    -0.12800
C1771       C  0.68528569  0.96407960  0.17689582    -0.11200
C1772       C  0.65232225  0.97347287  0.18945566    -0.12800
C1773       C  0.93301763  0.59026755  0.20724520    -0.11200
C1774       C  0.90532615  0.60602118  0.19480800    -0.12800
C1775       C  0.65083891  0.61967716  0.22242255    -0.06400
C1776       C  0.67457628  0.63467959  0.20589580    -0.12800
C1777       C  0.63714539  0.60833594  0.70772944    -0.11200
C1778       C  0.64618830  0.63866365  0.69351761    -0.12800
C1779       C  0.60485070  0.87282701  0.67761791    -0.11200
C1780       C  0.59356651  0.90629287  0.68939135    -0.12800
C1781       C  0.97406640  0.62498703  0.70850155    -0.11200
C1782       C  0.95529175  0.65212454  0.69691546    -0.12800
C1783       C  0.92409202  0.87948827  0.71174959    -0.11200
C1784       C  0.94273693  0.90486477  0.72676659    -0.12800
C1785       C  0.90472242  0.65339763  0.57656638    -0.11200
C1786       C  0.89507409  0.62002340  0.56350682    -0.12800
C1787       C  0.90027460  0.89411477  0.58823247    -0.11200
C1788       C  0.89161087  0.92402936  0.57478549    -0.12800
C1789       C  0.72620725  0.63483000  0.57375373    -0.11200
C1790       C  0.73794828  0.61476130  0.55556969    -0.12800
C1791       C  0.73380607  0.88710729  0.55247716    -0.11200
C1792       C  0.71657602  0.86177871  0.56726163    -0.12800
C1793       C  0.67363720  0.59627467  0.30458482    -0.11200
C1794       C  0.68869814  0.63062125  0.31509639    -0.12800
C1795       C  0.65781649  0.86541693  0.32081638    -0.11200
C1796       C  0.64252519  0.89313222  0.30787722    -0.12800
C1797       C  0.75457847  0.60720184  0.44526398    -0.11200
C1798       C  0.74336063  0.63795996  0.43316548    -0.12800
C1799       C  0.73303040  0.87489203  0.43966134    -0.11200
C1800       C  0.74620738  0.90135152  0.45582872    -0.12800
C1801       C  0.97439294  0.65643093  0.31565472    -0.11200
C1802       C  0.98797332  0.62567807  0.30251778    -0.12800
C1803       C  0.92653501  0.88863242  0.31555574    -0.11200
C1804       C  0.93972900  0.92179418  0.30439150    -0.12800
C1805       C  0.90425314  0.63314754  0.45494921    -0.11200
C1806       C  0.91846333  0.65751830  0.43886000    -0.12800
C1807       C  0.91293095  0.92578611  0.45067149    -0.11200
C1808       C  0.92191635  0.89410185  0.43724802    -0.12800
loop_ 
_geom_bond_atom_site_label_1 
_geom_bond_atom_site_label_2 
_geom_bond_distance 
_geom_bond_site_symmetry_2 
_ccdc_geom_bond_type 
N1            C6   1.352       .  A
N1            C5   1.353       .  A
N1           H33   1.037       .  S
N2            C9   1.348       .  A
N2           C10   1.350       .  A
N3            C8   1.355       .  A
N3            C7   1.357       .  A
N3           H34   1.039       .  S
N4           C11   1.357       .  A
N4           C12   1.354       .  A
C5           C13   1.388       .  A
C5           C21   1.415       .  A
C6           C22   1.413       .  A
C6           C14   1.387       .  A
C7           C15   1.386       .  A
C7           C24   1.419       .  A
C8           C23   1.420       .  A
C8           C16   1.388       .  A
C9           C21   1.409       .  A
C9           C17   1.388       .  A
C10          C24   1.408       .  A
C10          C18   1.387       .  A
C11          C19   1.385       .  A
C11          C22   1.419       .  A
C12          C20   1.388       .  A
C12          C23   1.421       .  A
C13          C14   1.378       .  A
C13          H25   1.082       .  S
C14          H26   1.082       .  S
C15          C16   1.378       .  A
C15          H27   1.082       .  S
C16          H28   1.082       .  S
C17          C18   1.370       .  A
C17          H29   1.082       .  S
C18          H30   1.082       .  S
C19          C20   1.379       .  A
C19          H31   1.082       .  S
C20          H32   1.082       .  S
C21         C452   1.445       .  S
C22         C450   1.463       .  S
C23         C445   1.461       .  S
C24         C447   1.455       .  S
N35          C40   1.355       .  A
N35          C39   1.353       .  A
N35          H67   1.038       .  S
N36          C43   1.354       .  A
N36          C44   1.356       .  A
N37          C42   1.355       .  A
N37          C41   1.353       .  A
N37          H68   1.036       .  S
N38          C45   1.350       .  A
N38          C46   1.349       .  A
C39          C47   1.389       .  A
C39          C55   1.417       .  A
C40          C56   1.415       .  A
C40          C48   1.387       .  A
C41          C49   1.388       .  A
C41          C58   1.417       .  A
C42          C57   1.416       .  A
C42          C50   1.387       .  A
C43          C55   1.420       .  A
C43          C51   1.387       .  A
C44          C58   1.421       .  A
C44          C52   1.386       .  A
C45          C53   1.387       .  A
C45          C56   1.407       .  A
C46          C54   1.388       .  A
C46          C57   1.409       .  A
C47          C48   1.377       .  A
C47          H59   1.082       .  S
C48          H60   1.083       .  S
C49          C50   1.377       .  A
C49          H61   1.082       .  S
C50          H62   1.082       .  S
C51          C52   1.378       .  A
C51          H63   1.082       .  S
C52          H64   1.082       .  S
C53          C54   1.368       .  A
C53          H65   1.082       .  S
C54          H66   1.082       .  S
C55         C439   1.457       .  S
C56         C438   1.449       .  S
C57         C442   1.449       .  S
C58         C443   1.462       .  S
O69          C77   1.256       .  A
O69         Co89   1.970       .  S
O70          C78   1.270       .  A
O70         Co90   1.972       .  S
O71          C79   1.296       .  A
O71         Co91   2.113       .  S
O72          C80   1.270       .  A
O72        Co544   2.018       .  S
O73          C79   1.266       .  A
O73         Co90   1.905       .  S
O74          C80   1.264       .  A
O74         Co89   1.973       .  S
O75          C78   1.280       .  A
O75         Co92   2.041       .  S
O76          C77   1.262       .  A
O76        Co543   1.996       .  S
C77         C451   1.426       .  S
C78         C430   1.448       .  S
C79         C449   1.449       .  S
C80         C432   1.441       .  S
O81          C94   1.270       .  A
O81         Co89   2.022       .  S
O82          C95   1.290       .  A
O82         Co90   2.094       .  S
O83          C96   1.268       .  A
O83        Co543   1.979       .  S
O84          C97   1.248       .  A
O84         Co92   1.954       .  S
O85          C97   1.260       .  A
O85         Co90   2.007       .  S
O86          C96   1.276       .  A
O86         Co89   2.031       .  S
O87          C94   1.258       .  A
O87        Co544   1.965       .  S
O88          C95   1.266       .  A
O88         Co91   1.898       .  S
Co89        O545   2.051       .  S
Co90         O93   2.038       .  S
Co91        O528   1.997   1_545  S
Co91        O535   1.980   1_545  S
Co91         O93   2.025       .  S
Co92        O524   2.017   1_545  S
Co92        O539   1.965   1_545  S
Co92         O93   2.034       .  S
O93        Co541   2.051   1_545  S
C94         C435   1.437       .  S
C95         C441   1.431       .  S
C96         C444   1.446       .  S
C97         C434   1.425       .  S
N98         C103   1.349       .  A
N98         C102   1.353       .  A
N98         H130   1.036       .  S
N99         C106   1.355       .  A
N99         C107   1.352       .  A
N100        C105   1.361       .  A
N100        C104   1.355       .  A
N100        H131   1.035       .  S
N101        C108   1.350       .  A
N101        C109   1.351       .  A
C102        C118   1.412       .  A
C102       C1014   1.388       .  A
C103        C119   1.409       .  A
C103       C1015   1.387       .  A
C104        C112   1.389       .  A
C104        C121   1.425       .  A
C105        C120   1.426       .  A
C105        C113   1.386       .  A
C106        C118   1.416       .  A
C106        C114   1.386       .  A
C107        C121   1.417       .  A
C107        C115   1.388       .  A
C108        C116   1.388       .  A
C108        C119   1.409       .  A
C109        C117   1.387       .  A
C109        C120   1.410       .  A
C110        C111   1.377       .  A
C110       C1006   1.388       .  A
C110        H122   1.083       .  S
C111       C1007   1.387       .  A
C111        H123   1.083       .  S
C112        C113   1.382       .  A
C112        H124   1.082       .  S
C113        H125   1.082       .  S
C114        C115   1.374       .  A
C114        H126   1.083       .  S
C115        H127   1.082       .  S
C116        C117   1.369       .  A
C116        H128   1.082       .  S
C117        H129   1.082       .  S
C118        C427   1.454       .  S
C119        C426   1.439       .  S
C120        C429   1.463       .  S
C121        C431   1.458       .  S
N132        C137   1.364       .  A
N132        C136   1.359       .  A
N132        H164   1.033       .  S
N133        C140   1.348       .  A
N133        C141   1.354       .  A
N134        C139   1.344       .  A
N134        C138   1.352       .  A
N134        H165   1.040       .  S
N135        C142   1.352       .  A
N135        C143   1.352       .  A
C136        C144   1.389       .  A
C136        C152   1.434       .  A
C137        C153   1.436       .  A
C137        C145   1.387       .  A
C138        C146   1.387       .  A
C138        C155   1.405       .  A
C139        C154   1.400       .  A
C139        C147   1.388       .  A
C140        C152   1.417       .  A
C140        C148   1.391       .  A
C141        C155   1.409       .  A
C141        C149   1.383       .  A
C142        C150   1.389       .  A
C142        C153   1.419       .  A
C143        C151   1.385       .  A
C143        C154   1.411       .  A
C144        C145   1.385       .  A
C144        H156   1.082       .  S
C145        H157   1.082       .  S
C146        C147   1.372       .  A
C146        H158   1.082       .  S
C147        H159   1.083       .  S
C148        C149   1.375       .  A
C148        H160   1.082       .  S
C149        H161   1.082       .  S
C150        C151   1.378       .  A
C150        H162   1.082       .  S
C151        H163   1.082       .  S
C152        C423   1.459       .  S
C153        C422   1.476       .  S
C154        C433   1.439       .  S
C155        C436   1.453       .  S
O166       C1078   1.262   1_455  A
O166       Co186   1.949       .  S
O167        C175   1.274       .  A
O167       Co187   2.028       .  S
O168        C176   1.238       .  A
O168       Co188   1.993       .  S
O169        C177   1.265       .  A
O169       Co189   1.981       .  S
O170       C1080   1.248   1_455  A
O170       Co187   2.044       .  S
O171        C177   1.266       .  A
O171       Co186   2.004       .  S
O172        C175   1.261       .  A
O172       Co189   1.966       .  S
O173        C174   1.281       .  A
O173       Co188   2.034       .  S
C174        C448   1.435       .  S
C174       O1070   1.262       .  A
C175        C416   1.437       .  S
C176        C413   1.468       .  S
C176       O1074   1.248       .  A
C177        C440   1.441       .  S
O178        C191   1.252       .  A
O178       Co638   1.949       .  S
O179       C1096   1.291   1_455  A
O179       Co639   1.960       .  S
O180        C193   1.256       .  A
O180       Co640   2.007       .  S
O181        C194   1.268       .  A
O181       Co641   2.013   1_545  S
O182        C194   1.268       .  A
O182       Co639   1.990       .  S
O183       C1097   1.251       .  A
O183       Co638   1.988       .  S
O184        C191   1.268       .  A
O184       Co641   2.016   1_545  S
O185        C192   1.291       .  A
O185       Co640   1.964       .  S
Co186       O630   1.949       .  S
Co186       O635   1.989       .  S
Co186       O190   2.068       .  S
Co187       O631   1.958       .  S
Co187       O634   1.991       .  S
Co187       O190   2.091       .  S
Co188       O632   2.007       .  S
Co188       O637   1.965       .  S
Co188      O1094   2.016       .  S
Co189       O633   2.012       .  S
Co189       O636   2.015       .  S
Co189       O190   2.060       .  S
O190      Co1092   2.016   1_455  S
C191        C437   1.430       .  S
C192        C417   1.410       .  S
C192       O1083   1.291       .  A
C193        C446   1.445       .  S
C193       O1087   1.251       .  A
C194        C419   1.448       .  S
O195        C203   1.281       .  A
O195       Co215   1.869   1_556  S
O196        C204   1.260       .  A
O196       Co216   1.982       .  S
O197        C205   1.297       .  A
O197       Co217   2.085       .  S
O198       C1110   1.275       .  A
O198       Co218   2.027   1_655  S
O199        C205   1.271       .  A
O199       Co216   1.900   1_556  S
O200        C206   1.271       .  A
O200       Co215   1.976       .  S
O201        C204   1.265       .  A
O201       Co218   2.002       .  S
O202       C1107   1.311   1_455  A
O202       Co217   2.121       .  S
C203        C411   1.433       .  S
C203       O1106   1.311       .  A
C204        C397   1.433       .  S
C205        C409   1.438       .  S
C206        C400   1.452       .  S
C206       O1102   1.275       .  A
O207        C220   1.279       .  A
O207       Co215   2.028       .  S
O208        C221   1.297       .  A
O208       Co216   2.085   1_556  S
O209       C1126   1.256   1_455  A
O209       Co217   1.992       .  S
O210        C223   1.264       .  A
O210       Co218   1.971       .  S
O211        C223   1.276       .  A
O211       Co216   2.020       .  S
O212        C222   1.253       .  A
O212       Co215   2.003   1_556  S
O213       C1124   1.259       .  A
O213       Co218   1.956   1_655  S
O214        C221   1.275       .  A
O214       Co217   1.907       .  S
Co215      O1123   1.924       .  S
Co216       O219   1.976       .  S
Co217       O219   2.027   1_556  S
Co218       O219   2.009       .  S
O219      Co1119   1.924   1_455  S
C220        C403   1.426       .  S
C220       O1117   1.259       .  A
C221        C406   1.439       .  S
C222        C407   1.445       .  S
C222       O1113   1.256       .  A
C223        C401   1.437       .  S
N224        C229   1.356       .  A
N224        C228   1.357       .  A
N224        H256   1.036       .  S
N225        C232   1.354       .  A
N225        C233   1.352       .  A
N226        C231   1.355       .  A
N226        C230   1.355       .  A
N226        H257   1.034       .  S
N227        C234   1.352       .  A
N227        C235   1.354       .  A
C228        C236   1.386       .  A
C228        C244   1.420       .  A
C229        C245   1.422       .  A
C229        C237   1.389       .  A
C230        C238   1.390       .  A
C230        C247   1.422       .  A
C231        C246   1.419       .  A
C231        C239   1.386       .  A
C232        C244   1.414       .  A
C232        C240   1.386       .  A
C233        C247   1.417       .  A
C233        C241   1.389       .  A
C234        C242   1.387       .  A
C234        C245   1.414       .  A
C235        C243   1.388       .  A
C235        C246   1.417       .  A
C236        C237   1.379       .  A
C236        H248   1.082       .  S
C237        H249   1.083       .  S
C238        C239   1.381       .  A
C238        H250   1.083       .  S
C239        H251   1.082       .  S
C240        C241   1.372       .  A
C240        H252   1.082       .  S
C241        H253   1.082       .  S
C242        C243   1.373       .  A
C242        H254   1.082       .  S
C243        H255   1.082       .  S
C244        C408   1.463       .  S
C245        C405   1.456       .  S
C246        C393   1.461       .  S
C247        C396   1.455       .  S
N258        C263   1.356       .  A
N258        C262   1.360       .  A
N258        H290   1.039       .  S
N259        C266   1.349       .  A
N259        C267   1.352       .  A
N260        C265   1.352       .  A
N260        C264   1.349       .  A
N260        H291   1.038       .  S
N261        C268   1.352       .  A
N261        C269   1.354       .  A
C262        C270   1.386       .  A
C262        C278   1.422       .  A
C263        C279   1.424       .  A
C263        C271   1.389       .  A
C264        C272   1.386       .  A
C264        C281   1.406       .  A
C265        C280   1.412       .  A
C265        C273   1.388       .  A
C266        C278   1.411       .  A
C266        C274   1.389       .  A
C267        C281   1.408       .  A
C267        C275   1.384       .  A
C268        C276   1.388       .  A
C268        C279   1.416       .  A
C269        C277   1.386       .  A
C269        C280   1.417       .  A
C270        C271   1.381       .  A
C270        H282   1.082       .  S
C271        H283   1.082       .  S
C272        C273   1.377       .  A
C272        H284   1.083       .  S
C273        H285   1.082       .  S
C274        C275   1.373       .  A
C274        H286   1.082       .  S
C275        H287   1.082       .  S
C276        C277   1.376       .  A
C276        H288   1.082       .  S
C277        H289   1.082       .  S
C278        C391   1.461       .  S
C279        C390   1.458       .  S
C280        C410   1.455       .  S
C281        C412   1.446       .  S
O292        C300   1.258       .  A
O292       Co312   1.964       .  S
O293        C301   1.280       .  A
O293       Co313   2.037       .  S
O294        C302   1.251       .  A
O294       Co766   2.040       .  S
O295        C303   1.275       .  A
O295       Co315   2.030       .  S
O296        C302   1.239       .  A
O296       Co313   1.980       .  S
O297        C303   1.263       .  A
O297       Co312   1.969       .  S
O298        C301   1.258       .  A
O298       Co767   1.944   1_545  S
O299        C300   1.273       .  A
O299       Co314   2.034       .  S
C300        C424   1.442       .  S
C301        C389   1.437       .  S
C302        C421   1.459       .  S
C303        C394   1.447       .  S
O304       C1221   1.268       .  A
O304       Co312   2.027       .  S
O305       C1222   1.292   1_455  A
O305       Co313   1.974       .  S
O306       C1223   1.265       .  A
O306       Co314   1.988   1_655  S
O307       C1224   1.259   1_455  A
O307       Co767   2.008   1_545  S
O308       C1224   1.253       .  A
O308       Co313   1.990   1_655  S
O309       C1223   1.270   1_455  A
O309       Co312   2.009       .  S
O310       C1221   1.248       .  A
O310       Co315   1.945       .  S
O311       C1222   1.293       .  A
O311       Co766   1.972   1_655  S
Co312       O316   2.059       .  S
Co313       O768   2.029   1_545  S
Co314       O746   2.041       .  S
Co314       O763   1.972   1_455  S
Co314       O316   2.087       .  S
Co315       O750   1.944       .  S
Co315       O759   2.007       .  S
Co315       O316   2.054       .  S
O316       Co765   2.029       .  S
C317        C395   1.435       .  S
C317       O1208   1.268       .  A
C317       O1214   1.248       .  A
C318        C425   1.423       .  S
C318       O1209   1.292       .  A
C318       O1215   1.293       .  A
C319        C428   1.434       .  S
C319       O1210   1.265       .  A
C319       O1213   1.270       .  A
C320        C392   1.448       .  S
C320       O1211   1.259       .  A
C320       O1212   1.253       .  A
N321        C326   1.347       .  A
N321        C325   1.355       .  A
N321        H353   1.037       .  S
N322        C329   1.358       .  A
N322        C330   1.350       .  A
N323        C328   1.363       .  A
N323        C327   1.353       .  A
N323        H354   1.038       .  S
N324        C331   1.346       .  A
N324        C332   1.351       .  A
C325        C333   1.386       .  A
C325        C341   1.412       .  A
C326        C342   1.409       .  A
C326        C334   1.389       .  A
C327        C335   1.391       .  A
C327        C344   1.425       .  A
C328        C343   1.425       .  A
C328        C336   1.385       .  A
C329        C341   1.417       .  A
C329        C337   1.383       .  A
C330        C344   1.420       .  A
C330        C338   1.391       .  A
C331        C339   1.390       .  A
C331        C342   1.408       .  A
C332        C340   1.385       .  A
C332        C343   1.405       .  A
C333        C334   1.374       .  A
C333        H345   1.082       .  S
C334        H346   1.083       .  S
C335        C336   1.383       .  A
C335        H347   1.082       .  S
C336        H348   1.082       .  S
C337        C338   1.376       .  A
C337        H349   1.082       .  S
C338        H350   1.082       .  S
C339        C340   1.368       .  A
C339        H351   1.082       .  S
C340        H352   1.083       .  S
C341        C420   1.467       .  S
C342        C418   1.428       .  S
C343        C399   1.468       .  S
C344        C398   1.449       .  S
N355        C360   1.353       .  A
N355        C359   1.345       .  A
N355        H387   1.039       .  S
N356        C363   1.355       .  A
N356        C364   1.356       .  A
N357        C362   1.360       .  A
N357        C361   1.364       .  A
N357        H388   1.037       .  S
N358        C365   1.354       .  A
N358        C366   1.346       .  A
C359        C367   1.389       .  A
C359        C375   1.403       .  A
C360        C376   1.406       .  A
C360        C368   1.387       .  A
C361        C369   1.386       .  A
C361        C378   1.432       .  A
C362        C377   1.431       .  A
C362        C370   1.389       .  A
C363        C375   1.419       .  A
C363        C371   1.386       .  A
C364        C378   1.422       .  A
C364        C372   1.387       .  A
C365        C373   1.383       .  A
C365        C376   1.409       .  A
C366        C374   1.391       .  A
C366        C377   1.413       .  A
C367        C368   1.367       .  A
C367        H379   1.081       .  S
C368        H380   1.082       .  S
C369        C370   1.383       .  A
C369        H381   1.082       .  S
C370        H382   1.082       .  S
C371        C372   1.380       .  A
C371        H383   1.082       .  S
C372        H384   1.082       .  S
C373        C374   1.374       .  A
C373        H385   1.082       .  S
C374        H386   1.082       .  S
C375        C404   1.443       .  S
C376        C402   1.453       .  S
C377        C415   1.454       .  S
C378        C414   1.484       .  S
C389        C390   1.210       .  T
C391        C392   1.214       .  T
C393        C394   1.213       .  T
C395        C396   1.208       .  T
C397        C398   1.206       .  T
C399        C400   1.218       .  T
C401        C402   1.208       .  T
C403        C404   1.203       .  T
C405        C406   1.209       .  T
C407        C408   1.214       .  T
C409        C410   1.209       .  T
C411        C412   1.205       .  T
C413        C414   1.227       .  T
C415        C416   1.209       .  T
C417        C418   1.192       .  T
C419        C420   1.217       .  T
C421        C422   1.223       .  T
C423        C424   1.212       .  T
C425        C426   1.199       .  T
C427        C428   1.208       .  T
C429        C430   1.215       .  T
C431        C432   1.211       .  T
C433        C434   1.201       .  T
C435        C436   1.208       .  T
C437        C438   1.205       .  T
C439        C440   1.210       .  T
C441        C442   1.205       .  T
C443        C444   1.214       .  T
C445        C446   1.213       .  T
C447        C448   1.209       .  T
C449        C450   1.215       .  T
C451        C452   1.202       .  T
N453        C458   1.352       .  A
N453        C457   1.353       .  A
N453        H485   1.038       .  S
N454        C461   1.348       .  A
N454        C462   1.350       .  A
N455        C460   1.356       .  A
N455        C459   1.358       .  A
N455        H486   1.039       .  S
N456        C463   1.357       .  A
N456        C464   1.354       .  A
C457        C465   1.388       .  A
C457        C473   1.415       .  A
C458        C474   1.413       .  A
C458        C466   1.386       .  A
C459        C467   1.386       .  A
C459        C476   1.419       .  A
C460        C475   1.420       .  A
C460        C468   1.388       .  A
C461        C473   1.409       .  A
C461        C469   1.388       .  A
C462        C476   1.408       .  A
C462        C470   1.387       .  A
C463        C471   1.385       .  A
C463        C474   1.419       .  A
C464        C472   1.388       .  A
C464        C475   1.421       .  A
C465        C466   1.378       .  A
C465        H477   1.082       .  S
C466        H478   1.082       .  S
C467        C468   1.378       .  A
C467        H479   1.082       .  S
C468        H480   1.082       .  S
C469        C470   1.370       .  A
C469        H481   1.082       .  S
C470        H482   1.082       .  S
C471        C472   1.379       .  A
C471        H483   1.082       .  S
C472        H484   1.082       .  S
C473        C904   1.445       .  S
C474        C902   1.463       .  S
C475        C897   1.461       .  S
C476        C899   1.456       .  S
N487        C492   1.355       .  A
N487        C491   1.353       .  A
N487        H519   1.039       .  S
N488        C495   1.354       .  A
N488        C496   1.356       .  A
N489        C494   1.355       .  A
N489        C493   1.354       .  A
N489        H520   1.036       .  S
N490        C497   1.349       .  A
N490        C498   1.349       .  A
C491        C499   1.389       .  A
C491        C507   1.416       .  A
C492        C508   1.415       .  A
C492        C500   1.387       .  A
C493        C501   1.388       .  A
C493        C510   1.417       .  A
C494        C509   1.416       .  A
C494        C502   1.387       .  A
C495        C507   1.420       .  A
C495        C503   1.387       .  A
C496        C510   1.421       .  A
C496        C504   1.386       .  A
C497        C505   1.387       .  A
C497        C508   1.407       .  A
C498        C506   1.388       .  A
C498        C509   1.409       .  A
C499        C500   1.377       .  A
C499        H511   1.082       .  S
C500        H512   1.083       .  S
C501        C502   1.377       .  A
C501        H513   1.082       .  S
C502        H514   1.082       .  S
C503        C504   1.378       .  A
C503        H515   1.082       .  S
C504        H516   1.082       .  S
C505        C506   1.369       .  A
C505        H517   1.083       .  S
C506        H518   1.082       .  S
C507        C891   1.457       .  S
C508        C890   1.448       .  S
C509        C894   1.449       .  S
C510        C895   1.463       .  S
O521        C529   1.256       .  A
O521       Co541   1.969       .  S
O522        C530   1.270       .  A
O522       Co542   1.971       .  S
O523        C531   1.296       .  A
O523       Co543   2.112       .  S
O524        C532   1.270       .  A
O525        C531   1.266       .  A
O525       Co542   1.905       .  S
O526        C532   1.264       .  A
O526       Co541   1.973       .  S
O527        C530   1.280       .  A
O527       Co544   2.040       .  S
O528        C529   1.262       .  A
C529        C903   1.427       .  S
C530        C882   1.447       .  S
C531        C901   1.449       .  S
C532        C884   1.441       .  S
O533        C546   1.270       .  A
O533       Co541   2.022       .  S
O534        C547   1.290       .  A
O534       Co542   2.094       .  S
O535        C548   1.269       .  A
O536        C549   1.248       .  A
O536       Co544   1.954       .  S
O537        C549   1.260       .  A
O537       Co542   2.008       .  S
O538        C548   1.276       .  A
O538       Co541   2.031       .  S
O539        C546   1.258       .  A
O540        C547   1.266       .  A
O540       Co543   1.898       .  S
Co542       O545   2.038       .  S
Co543       O545   2.025       .  S
Co544       O545   2.033       .  S
C546        C887   1.437       .  S
C547        C893   1.431       .  S
C548        C896   1.447       .  S
C549        C886   1.426       .  S
N550        C555   1.349       .  A
N550        C554   1.353       .  A
N550        H582   1.036       .  S
N551        C558   1.355       .  A
N551        C559   1.352       .  A
N552        C557   1.360       .  A
N552        C556   1.355       .  A
N552        H583   1.035       .  S
N553        C560   1.350       .  A
N553        C561   1.351       .  A
C554       C1466   1.388       .  A
C554        C570   1.412       .  A
C555        C571   1.409       .  A
C555       C1467   1.387       .  A
C556        C564   1.389       .  A
C556        C573   1.425       .  A
C557        C572   1.425       .  A
C557        C565   1.386       .  A
C558        C570   1.416       .  A
C558        C566   1.386       .  A
C559        C573   1.417       .  A
C559        C567   1.388       .  A
C560        C568   1.388       .  A
C560        C571   1.409       .  A
C561        C569   1.387       .  A
C561        C572   1.410       .  A
C562       C1458   1.388       .  A
C562        C563   1.377       .  A
C562        H574   1.083       .  S
C563       C1459   1.387       .  A
C563        H575   1.083       .  S
C564        C565   1.382       .  A
C564        H576   1.082       .  S
C565        H577   1.082       .  S
C566        C567   1.374       .  A
C566        H578   1.083       .  S
C567        H579   1.082       .  S
C568        C569   1.369       .  A
C568        H580   1.082       .  S
C569        H581   1.082       .  S
C570        C879   1.455       .  S
C571        C878   1.439       .  S
C572        C881   1.463       .  S
C573        C883   1.458       .  S
N584        C589   1.364       .  A
N584        C588   1.359       .  A
N584        H616   1.033       .  S
N585        C592   1.348       .  A
N585        C593   1.354       .  A
N586        C591   1.344       .  A
N586        C590   1.352       .  A
N586        H617   1.039       .  S
N587        C594   1.352       .  A
N587        C595   1.352       .  A
C588        C596   1.389       .  A
C588        C604   1.433       .  A
C589        C605   1.435       .  A
C589        C597   1.388       .  A
C590        C598   1.388       .  A
C590        C607   1.406       .  A
C591        C606   1.401       .  A
C591        C599   1.388       .  A
C592        C604   1.417       .  A
C592        C600   1.391       .  A
C593        C607   1.410       .  A
C593        C601   1.383       .  A
C594        C602   1.389       .  A
C594        C605   1.419       .  A
C595        C603   1.384       .  A
C595        C606   1.411       .  A
C596        C597   1.385       .  A
C596        H608   1.082       .  S
C597        H609   1.082       .  S
C598        C599   1.372       .  A
C598        H610   1.082       .  S
C599        H611   1.083       .  S
C600        C601   1.374       .  A
C600        H612   1.082       .  S
C601        H613   1.082       .  S
C602        C603   1.378       .  A
C602        H614   1.082       .  S
C603        H615   1.082       .  S
C604        C875   1.458       .  S
C605        C874   1.476       .  S
C606        C885   1.440       .  S
C607        C888   1.453       .  S
O618       C1530   1.262   1_455  A
O618       Co638   1.950   1_565  S
O619        C627   1.274   1_545  A
O619       Co639   2.029       .  S
O620        C628   1.238       .  A
O620       Co640   1.992   1_565  S
O621        C629   1.265       .  A
O621       Co641   1.982       .  S
O622       C1532   1.248   1_455  A
O622       Co639   2.042   1_565  S
O623        C629   1.266       .  A
O623       Co638   2.003   1_565  S
O624        C627   1.262       .  A
O624       Co641   1.967       .  S
O625        C626   1.281       .  A
O625       Co640   2.035   1_565  S
C626        C900   1.436       .  S
C626       O1522   1.262       .  A
C627        C868   1.438       .  S
C628        C865   1.467       .  S
C628       O1526   1.248       .  A
C629        C892   1.441       .  S
O630        C643   1.252       .  A
O631       C1548   1.291   1_455  A
O632        C645   1.257       .  A
O633        C646   1.268       .  A
O634        C646   1.268       .  A
O635       C1549   1.251       .  A
O636        C643   1.268       .  A
O637        C644   1.291       .  A
Co638       O642   2.068   1_545  S
Co639       O642   2.092   1_545  S
Co640      O1546   2.017   1_545  S
Co641       O642   2.061       .  S
O642      Co1544   2.017   1_465  S
C643        C889   1.429       .  S
C644        C869   1.409       .  S
C644       O1535   1.291       .  A
C645        C898   1.445       .  S
C645       O1539   1.251       .  A
C646        C871   1.448       .  S
O647        C655   1.281       .  A
O647       Co667   1.869   1_556  S
O648        C656   1.260       .  A
O648       Co668   1.982       .  S
O649        C657   1.297       .  A
O649       Co669   2.084       .  S
O650       C1562   1.275       .  A
O650       Co670   2.028   1_655  S
O651        C657   1.271       .  A
O651       Co668   1.900   1_556  S
O652        C658   1.271       .  A
O652       Co667   1.976       .  S
O653        C656   1.264       .  A
O653       Co670   2.001       .  S
O654       C1559   1.310   1_455  A
O654       Co669   2.120       .  S
C655        C863   1.433       .  S
C655       O1558   1.310       .  A
C656        C849   1.432       .  S
C657        C861   1.438       .  S
C658        C852   1.452       .  S
C658       O1554   1.275       .  A
O659        C672   1.278       .  A
O659       Co667   2.028       .  S
O660        C673   1.297       .  A
O660       Co668   2.085   1_556  S
O661       C1578   1.256   1_455  A
O661       Co669   1.992       .  S
O662        C675   1.264       .  A
O662       Co670   1.971       .  S
O663        C675   1.276       .  A
O663       Co668   2.020       .  S
O664        C674   1.253       .  A
O664       Co667   2.002   1_556  S
O665       C1576   1.260       .  A
O665       Co670   1.956   1_655  S
O666        C673   1.275       .  A
O666       Co669   1.906       .  S
Co667      O1575   1.924       .  S
Co668       O671   1.976       .  S
Co669       O671   2.027   1_556  S
Co670       O671   2.010       .  S
O671      Co1571   1.924   1_455  S
C672        C855   1.426       .  S
C672       O1569   1.260       .  A
C673        C858   1.439       .  S
C674        C859   1.445       .  S
C674       O1565   1.256       .  A
C675        C853   1.437       .  S
N676        C681   1.356       .  A
N676        C680   1.357       .  A
N676        H708   1.036       .  S
N677        C684   1.354       .  A
N677        C685   1.352       .  A
N678        C683   1.356       .  A
N678        C682   1.355       .  A
N678        H709   1.033       .  S
N679        C686   1.351       .  A
N679        C687   1.354       .  A
C680        C688   1.386       .  A
C680        C696   1.419       .  A
C681        C697   1.422       .  A
C681        C689   1.389       .  A
C682        C690   1.390       .  A
C682        C699   1.422       .  A
C683        C698   1.419       .  A
C683        C691   1.386       .  A
C684        C696   1.414       .  A
C684        C692   1.386       .  A
C685        C699   1.417       .  A
C685        C693   1.389       .  A
C686        C694   1.387       .  A
C686        C697   1.413       .  A
C687        C695   1.388       .  A
C687        C698   1.417       .  A
C688        C689   1.380       .  A
C688        H700   1.082       .  S
C689        H701   1.083       .  S
C690        C691   1.381       .  A
C690        H702   1.083       .  S
C691        H703   1.082       .  S
C692        C693   1.373       .  A
C692        H704   1.082       .  S
C693        H705   1.082       .  S
C694        C695   1.373       .  A
C694        H706   1.082       .  S
C695        H707   1.082       .  S
C696        C860   1.463       .  S
C697        C857   1.455       .  S
C698        C845   1.462       .  S
C699        C848   1.455       .  S
N710        C715   1.356       .  A
N710        C714   1.360       .  A
N710        H742   1.039       .  S
N711        C718   1.349       .  A
N711        C719   1.352       .  A
N712        C717   1.352       .  A
N712        C716   1.349       .  A
N712        H743   1.038       .  S
N713        C720   1.352       .  A
N713        C721   1.354       .  A
C714        C722   1.386       .  A
C714        C730   1.422       .  A
C715        C731   1.424       .  A
C715        C723   1.389       .  A
C716        C724   1.386       .  A
C716        C733   1.405       .  A
C717        C732   1.411       .  A
C717        C725   1.388       .  A
C718        C730   1.411       .  A
C718        C726   1.389       .  A
C719        C733   1.408       .  A
C719        C727   1.384       .  A
C720        C728   1.388       .  A
C720        C731   1.416       .  A
C721        C729   1.386       .  A
C721        C732   1.417       .  A
C722        C723   1.381       .  A
C722        H734   1.082       .  S
C723        H735   1.082       .  S
C724        C725   1.377       .  A
C724        H736   1.083       .  S
C725        H737   1.082       .  S
C726        C727   1.373       .  A
C726        H738   1.082       .  S
C727        H739   1.082       .  S
C728        C729   1.377       .  A
C728        H740   1.082       .  S
C729        H741   1.082       .  S
C730        C843   1.460       .  S
C731        C842   1.459       .  S
C732        C862   1.455       .  S
C733        C864   1.445       .  S
O744        C752   1.257       .  A
O744       Co764   1.964       .  S
O745        C753   1.280       .  A
O745       Co765   2.039       .  S
O746        C754   1.251       .  A
O747        C755   1.275       .  A
O747       Co767   2.030       .  S
O748        C754   1.238       .  A
O748       Co765   1.980       .  S
O749        C755   1.263       .  A
O749       Co764   1.970       .  S
O750        C753   1.258       .  A
O751        C752   1.273       .  A
O751       Co766   2.033   1_565  S
C752        C876   1.441       .  S
C753        C841   1.437       .  S
C754        C873   1.459       .  S
C755        C846   1.448       .  S
O756       C1673   1.268       .  A
O756       Co764   2.027       .  S
O757       C1674   1.292   1_455  A
O757       Co765   1.976       .  S
O758       C1675   1.266       .  A
O758       Co766   1.989   1_665  S
O759       C1676   1.259   1_455  A
O760       C1676   1.252       .  A
O760       Co765   1.989   1_655  S
O761       C1675   1.270   1_455  A
O761       Co764   2.009       .  S
O762       C1673   1.248       .  A
O762       Co767   1.945       .  S
O763       C1674   1.293       .  A
Co764       O768   2.059       .  S
Co766       O768   2.088   1_545  S
Co767       O768   2.055       .  S
C769        C847   1.435       .  S
C769       O1660   1.268       .  A
C769       O1666   1.248       .  A
C770        C877   1.423       .  S
C770       O1661   1.292       .  A
C770       O1667   1.293       .  A
C771        C880   1.435       .  S
C771       O1662   1.266       .  A
C771       O1665   1.270       .  A
C772        C844   1.447       .  S
C772       O1663   1.259       .  A
C772       O1664   1.252       .  A
N773        C778   1.347       .  A
N773        C777   1.355       .  A
N773        H805   1.037       .  S
N774        C781   1.359       .  A
N774        C782   1.350       .  A
N775        C780   1.363       .  A
N775        C779   1.353       .  A
N775        H806   1.037       .  S
N776        C783   1.346       .  A
N776        C784   1.351       .  A
C777        C785   1.386       .  A
C777        C793   1.411       .  A
C778        C794   1.408       .  A
C778        C786   1.389       .  A
C779        C787   1.391       .  A
C779        C796   1.426       .  A
C780        C795   1.425       .  A
C780        C788   1.384       .  A
C781        C793   1.417       .  A
C781        C789   1.383       .  A
C782        C796   1.420       .  A
C782        C790   1.391       .  A
C783        C791   1.390       .  A
C783        C794   1.408       .  A
C784        C792   1.385       .  A
C784        C795   1.406       .  A
C785        C786   1.374       .  A
C785        H797   1.082       .  S
C786        H798   1.083       .  S
C787        C788   1.382       .  A
C787        H799   1.082       .  S
C788        H800   1.082       .  S
C789        C790   1.376       .  A
C789        H801   1.082       .  S
C790        H802   1.082       .  S
C791        C792   1.368       .  A
C791        H803   1.082       .  S
C792        H804   1.083       .  S
C793        C872   1.467       .  S
C794        C870   1.427       .  S
C795        C851   1.468       .  S
C796        C850   1.449       .  S
N807        C812   1.353       .  A
N807        C811   1.345       .  A
N807        H839   1.039       .  S
N808        C815   1.355       .  A
N808        C816   1.356       .  A
N809        C814   1.360       .  A
N809        C813   1.364       .  A
N809        H840   1.037       .  S
N810        C817   1.354       .  A
N810        C818   1.346       .  A
C811        C819   1.389       .  A
C811        C827   1.402       .  A
C812        C828   1.406       .  A
C812        C820   1.387       .  A
C813        C821   1.386       .  A
C813        C830   1.432       .  A
C814        C829   1.431       .  A
C814        C822   1.389       .  A
C815        C827   1.418       .  A
C815        C823   1.386       .  A
C816        C830   1.422       .  A
C816        C824   1.387       .  A
C817        C825   1.383       .  A
C817        C828   1.409       .  A
C818        C826   1.391       .  A
C818        C829   1.413       .  A
C819        C820   1.367       .  A
C819        H831   1.081       .  S
C820        H832   1.082       .  S
C821        C822   1.383       .  A
C821        H833   1.082       .  S
C822        H834   1.082       .  S
C823        C824   1.380       .  A
C823        H835   1.082       .  S
C824        H836   1.082       .  S
C825        C826   1.375       .  A
C825        H837   1.082       .  S
C826        H838   1.082       .  S
C827        C856   1.443       .  S
C828        C854   1.453       .  S
C829        C867   1.455       .  S
C830        C866   1.483       .  S
C841        C842   1.211       .  T
C843        C844   1.213       .  T
C845        C846   1.214       .  T
C847        C848   1.208       .  T
C849        C850   1.205       .  T
C851        C852   1.218       .  T
C853        C854   1.208       .  T
C855        C856   1.203       .  T
C857        C858   1.209       .  T
C859        C860   1.214       .  T
C861        C862   1.209       .  T
C863        C864   1.204       .  T
C865        C866   1.227       .  T
C867        C868   1.209       .  T
C869        C870   1.191       .  T
C871        C872   1.216       .  T
C873        C874   1.223       .  T
C875        C876   1.211       .  T
C877        C878   1.199       .  T
C879        C880   1.208       .  T
C881        C882   1.214       .  T
C883        C884   1.211       .  T
C885        C886   1.202       .  T
C887        C888   1.208       .  T
C889        C890   1.204       .  T
C891        C892   1.210       .  T
C893        C894   1.205       .  T
C895        C896   1.214       .  T
C897        C898   1.213       .  T
C899        C900   1.209       .  T
C901        C902   1.215       .  T
C903        C904   1.203       .  T
N905        C910   1.352       .  A
N905        C909   1.353       .  A
N905        H937   1.037       .  S
N906        C913   1.348       .  A
N906        C914   1.350       .  A
N907        C912   1.355       .  A
N907        C911   1.357       .  A
N907        H938   1.039       .  S
N908        C915   1.357       .  A
N908        C916   1.354       .  A
C909        C917   1.388       .  A
C909        C925   1.415       .  A
C910        C926   1.413       .  A
C910        C918   1.387       .  A
C911        C919   1.386       .  A
C911        C928   1.419       .  A
C912        C927   1.419       .  A
C912        C920   1.388       .  A
C913        C925   1.409       .  A
C913        C921   1.388       .  A
C914        C928   1.408       .  A
C914        C922   1.387       .  A
C915        C923   1.385       .  A
C915        C926   1.419       .  A
C916        C924   1.388       .  A
C916        C927   1.421       .  A
C917        C918   1.378       .  A
C917        H929   1.082       .  S
C918        H930   1.082       .  S
C919        C920   1.378       .  A
C919        H931   1.082       .  S
C920        H932   1.082       .  S
C921        C922   1.370       .  A
C921        H933   1.082       .  S
C922        H934   1.082       .  S
C923        C924   1.379       .  A
C923        H935   1.082       .  S
C924        H936   1.082       .  S
C925       C1356   1.445       .  S
C926       C1354   1.463       .  S
C927       C1349   1.461       .  S
C928       C1351   1.455       .  S
N939        C944   1.355       .  A
N939        C943   1.353       .  A
N939        H971   1.038       .  S
N940        C947   1.354       .  A
N940        C948   1.356       .  A
N941        C946   1.355       .  A
N941        C945   1.353       .  A
N941        H972   1.036       .  S
N942        C949   1.350       .  A
N942        C950   1.349       .  A
C943        C951   1.389       .  A
C943        C959   1.417       .  A
C944        C960   1.415       .  A
C944        C952   1.387       .  A
C945        C953   1.388       .  A
C945        C962   1.417       .  A
C946        C961   1.416       .  A
C946        C954   1.387       .  A
C947        C959   1.420       .  A
C947        C955   1.387       .  A
C948        C962   1.421       .  A
C948        C956   1.386       .  A
C949        C957   1.387       .  A
C949        C960   1.407       .  A
C950        C958   1.388       .  A
C950        C961   1.409       .  A
C951        C952   1.377       .  A
C951        H963   1.082       .  S
C952        H964   1.083       .  S
C953        C954   1.377       .  A
C953        H965   1.082       .  S
C954        H966   1.082       .  S
C955        C956   1.378       .  A
C955        H967   1.082       .  S
C956        H968   1.082       .  S
C957        C958   1.368       .  A
C957        H969   1.082       .  S
C958        H970   1.082       .  S
C959       C1343   1.457       .  S
C960       C1342   1.449       .  S
C961       C1346   1.449       .  S
C962       C1347   1.462       .  S
O973        C981   1.256       .  A
O973       Co993   1.970       .  S
O974        C982   1.270       .  A
O974       Co994   1.972       .  S
O975        C983   1.296       .  A
O975       Co995   2.113       .  S
O976        C984   1.270       .  A
O976      Co1448   2.018       .  S
O977        C983   1.266       .  A
O977       Co994   1.905       .  S
O978        C984   1.264       .  A
O978       Co993   1.973       .  S
O979        C982   1.280       .  A
O979       Co996   2.041       .  S
O980        C981   1.262       .  A
O980      Co1447   1.996       .  S
C981       C1355   1.426       .  S
C982       C1334   1.448       .  S
C983       C1353   1.449       .  S
C984       C1336   1.441       .  S
O985        C998   1.270       .  A
O985       Co993   2.022       .  S
O986        C999   1.290       .  A
O986       Co994   2.094       .  S
O987       C1000   1.269       .  A
O987      Co1447   1.979       .  S
O988       C1001   1.248       .  A
O988       Co996   1.954       .  S
O989       C1001   1.260       .  A
O989       Co994   2.007       .  S
O990       C1000   1.276       .  A
O990       Co993   2.031       .  S
O991        C998   1.258       .  A
O991      Co1448   1.965       .  S
O992        C999   1.266       .  A
O992       Co995   1.898       .  S
Co993      O1449   2.051       .  S
Co994       O997   2.038       .  S
Co995      O1432   1.997   1_545  S
Co995      O1439   1.980   1_545  S
Co995       O997   2.025       .  S
Co996      O1428   2.017   1_545  S
Co996      O1443   1.965   1_545  S
Co996       O997   2.034       .  S
O997      Co1445   2.051   1_545  S
C998       C1339   1.437       .  S
C999       C1345   1.431       .  S
C1000      C1348   1.446       .  S
C1001      C1338   1.425       .  S
N1002      C1007   1.349       .  A
N1002      C1006   1.353       .  A
N1002      H1034   1.036       .  S
N1003      C1010   1.355       .  A
N1003      C1011   1.352       .  A
N1004      C1009   1.361       .  A
N1004      C1008   1.355       .  A
N1004      H1035   1.035       .  S
N1005      C1012   1.350       .  A
N1005      C1013   1.351       .  A
C1006      C1022   1.412       .  A
C1007      C1023   1.409       .  A
C1008      C1016   1.389       .  A
C1008      C1025   1.425       .  A
C1009      C1024   1.426       .  A
C1009      C1017   1.386       .  A
C1010      C1022   1.416       .  A
C1010      C1018   1.386       .  A
C1011      C1025   1.417       .  A
C1011      C1019   1.388       .  A
C1012      C1020   1.388       .  A
C1012      C1023   1.409       .  A
C1013      C1021   1.387       .  A
C1013      C1024   1.410       .  A
C1014      C1015   1.377       .  A
C1014      H1026   1.083       .  S
C1015      H1027   1.083       .  S
C1016      C1017   1.382       .  A
C1016      H1028   1.082       .  S
C1017      H1029   1.082       .  S
C1018      C1019   1.374       .  A
C1018      H1030   1.083       .  S
C1019      H1031   1.082       .  S
C1020      C1021   1.369       .  A
C1020      H1032   1.082       .  S
C1021      H1033   1.082       .  S
C1022      C1331   1.454       .  S
C1023      C1330   1.439       .  S
C1024      C1333   1.464       .  S
C1025      C1335   1.458       .  S
N1036      C1041   1.364       .  A
N1036      C1040   1.359       .  A
N1036      H1068   1.033       .  S
N1037      C1044   1.348       .  A
N1037      C1045   1.354       .  A
N1038      C1043   1.344       .  A
N1038      C1042   1.352       .  A
N1038      H1069   1.040       .  S
N1039      C1046   1.352       .  A
N1039      C1047   1.352       .  A
C1040      C1048   1.389       .  A
C1040      C1056   1.434       .  A
C1041      C1057   1.436       .  A
C1041      C1049   1.387       .  A
C1042      C1050   1.387       .  A
C1042      C1059   1.405       .  A
C1043      C1058   1.400       .  A
C1043      C1051   1.388       .  A
C1044      C1056   1.417       .  A
C1044      C1052   1.391       .  A
C1045      C1059   1.409       .  A
C1045      C1053   1.383       .  A
C1046      C1054   1.389       .  A
C1046      C1057   1.419       .  A
C1047      C1055   1.385       .  A
C1047      C1058   1.411       .  A
C1048      C1049   1.385       .  A
C1048      H1060   1.082       .  S
C1049      H1061   1.082       .  S
C1050      C1051   1.372       .  A
C1050      H1062   1.082       .  S
C1051      H1063   1.083       .  S
C1052      C1053   1.375       .  A
C1052      H1064   1.082       .  S
C1053      H1065   1.082       .  S
C1054      C1055   1.378       .  A
C1054      H1066   1.082       .  S
C1055      H1067   1.082       .  S
C1056      C1327   1.459       .  S
C1057      C1326   1.476       .  S
C1058      C1337   1.439       .  S
C1059      C1340   1.453       .  S
O1070     Co1090   1.949       .  S
O1071      C1079   1.274       .  A
O1071     Co1091   2.028       .  S
O1072      C1080   1.238       .  A
O1072     Co1092   1.993       .  S
O1073      C1081   1.265       .  A
O1073     Co1093   1.981       .  S
O1074     Co1091   2.044       .  S
O1075      C1081   1.266       .  A
O1075     Co1090   2.004       .  S
O1076      C1079   1.261       .  A
O1076     Co1093   1.966       .  S
O1077      C1078   1.281       .  A
O1077     Co1092   2.034       .  S
C1078      C1352   1.435       .  S
C1079      C1320   1.437       .  S
C1080      C1317   1.468       .  S
C1081      C1344   1.441       .  S
O1082      C1095   1.252       .  A
O1082     Co1542   1.949       .  S
O1083     Co1543   1.960       .  S
O1084      C1097   1.256       .  A
O1084     Co1544   2.007   1_455  S
O1085      C1098   1.268       .  A
O1085     Co1545   2.013   1_545  S
O1086      C1098   1.268       .  A
O1086     Co1543   1.990       .  S
O1087     Co1542   1.988       .  S
O1088      C1095   1.268       .  A
O1088     Co1545   2.016   1_545  S
O1089      C1096   1.291       .  A
O1089     Co1544   1.964       .  S
Co1090     O1534   1.949       .  S
Co1090     O1539   1.989       .  S
Co1090     O1094   2.068       .  S
Co1091     O1535   1.958       .  S
Co1091     O1538   1.991       .  S
Co1091     O1094   2.091       .  S
Co1092     O1536   2.007   1_655  S
Co1092     O1541   1.965       .  S
Co1093     O1537   2.012       .  S
Co1093     O1540   2.015       .  S
Co1093     O1094   2.060       .  S
C1095      C1341   1.430       .  S
C1096      C1321   1.410       .  S
C1097      C1350   1.445   1_455  S
C1098      C1323   1.448       .  S
O1099      C1107   1.281       .  A
O1099     Co1119   1.869   1_556  S
O1100      C1108   1.260       .  A
O1100     Co1120   1.982       .  S
O1101      C1109   1.297       .  A
O1101     Co1121   2.085       .  S
O1102     Co1122   2.027       .  S
O1103      C1109   1.271       .  A
O1103     Co1120   1.900   1_556  S
O1104      C1110   1.271       .  A
O1104     Co1119   1.976       .  S
O1105      C1108   1.265       .  A
O1105     Co1122   2.002       .  S
O1106     Co1121   2.121       .  S
C1107      C1315   1.433       .  S
C1108      C1301   1.433       .  S
C1109      C1313   1.438       .  S
C1110      C1304   1.452       .  S
O1111      C1124   1.279       .  A
O1111     Co1119   2.028       .  S
O1112      C1125   1.297       .  A
O1112     Co1120   2.085   1_556  S
O1113     Co1121   1.992       .  S
O1114      C1127   1.264       .  A
O1114     Co1122   1.971       .  S
O1115      C1127   1.276       .  A
O1115     Co1120   2.020       .  S
O1116      C1126   1.253       .  A
O1116     Co1119   2.002   1_556  S
O1117     Co1122   1.956       .  S
O1118      C1125   1.275       .  A
O1118     Co1121   1.907       .  S
Co1120     O1123   1.976       .  S
Co1121     O1123   2.027   1_556  S
Co1122     O1123   2.009       .  S
C1124      C1307   1.426       .  S
C1125      C1310   1.439       .  S
C1126      C1311   1.445       .  S
C1127      C1305   1.437       .  S
N1128      C1133   1.356       .  A
N1128      C1132   1.357       .  A
N1128      H1160   1.036       .  S
N1129      C1136   1.354       .  A
N1129      C1137   1.352       .  A
N1130      C1135   1.355       .  A
N1130      C1134   1.355       .  A
N1130      H1161   1.034       .  S
N1131      C1138   1.352       .  A
N1131      C1139   1.354       .  A
C1132      C1140   1.386       .  A
C1132      C1148   1.420       .  A
C1133      C1149   1.422       .  A
C1133      C1141   1.389       .  A
C1134      C1142   1.390       .  A
C1134      C1151   1.422       .  A
C1135      C1150   1.419       .  A
C1135      C1143   1.386       .  A
C1136      C1148   1.414       .  A
C1136      C1144   1.386       .  A
C1137      C1151   1.417       .  A
C1137      C1145   1.389       .  A
C1138      C1146   1.387       .  A
C1138      C1149   1.414       .  A
C1139      C1147   1.388       .  A
C1139      C1150   1.417       .  A
C1140      C1141   1.379       .  A
C1140      H1152   1.082       .  S
C1141      H1153   1.083       .  S
C1142      C1143   1.381       .  A
C1142      H1154   1.083       .  S
C1143      H1155   1.082       .  S
C1144      C1145   1.372       .  A
C1144      H1156   1.082       .  S
C1145      H1157   1.082       .  S
C1146      C1147   1.373       .  A
C1146      H1158   1.082       .  S
C1147      H1159   1.082       .  S
C1148      C1312   1.463       .  S
C1149      C1309   1.456       .  S
C1150      C1297   1.461       .  S
C1151      C1300   1.455       .  S
N1162      C1167   1.356       .  A
N1162      C1166   1.360       .  A
N1162      H1194   1.039       .  S
N1163      C1170   1.349       .  A
N1163      C1171   1.352       .  A
N1164      C1169   1.352       .  A
N1164      C1168   1.349       .  A
N1164      H1195   1.038       .  S
N1165      C1172   1.352       .  A
N1165      C1173   1.354       .  A
C1166      C1174   1.386       .  A
C1166      C1182   1.422       .  A
C1167      C1183   1.424       .  A
C1167      C1175   1.389       .  A
C1168      C1176   1.386       .  A
C1168      C1185   1.406       .  A
C1169      C1184   1.412       .  A
C1169      C1177   1.388       .  A
C1170      C1182   1.411       .  A
C1170      C1178   1.389       .  A
C1171      C1185   1.408       .  A
C1171      C1179   1.384       .  A
C1172      C1180   1.388       .  A
C1172      C1183   1.416       .  A
C1173      C1181   1.386       .  A
C1173      C1184   1.417       .  A
C1174      C1175   1.381       .  A
C1174      H1186   1.082       .  S
C1175      H1187   1.082       .  S
C1176      C1177   1.377       .  A
C1176      H1188   1.083       .  S
C1177      H1189   1.082       .  S
C1178      C1179   1.373       .  A
C1178      H1190   1.082       .  S
C1179      H1191   1.082       .  S
C1180      C1181   1.376       .  A
C1180      H1192   1.082       .  S
C1181      H1193   1.082       .  S
C1182      C1295   1.461       .  S
C1183      C1294   1.459       .  S
C1184      C1314   1.455       .  S
C1185      C1316   1.446       .  S
O1196      C1204   1.258       .  A
O1196     Co1216   1.964       .  S
O1197      C1205   1.280       .  A
O1197     Co1217   2.037       .  S
O1198      C1206   1.251       .  A
O1198     Co1670   2.040       .  S
O1199      C1207   1.275       .  A
O1199     Co1219   2.030       .  S
O1200      C1206   1.239       .  A
O1200     Co1217   1.980       .  S
O1201      C1207   1.263       .  A
O1201     Co1216   1.970       .  S
O1202      C1205   1.258       .  A
O1202     Co1671   1.944   1_545  S
O1203      C1204   1.273       .  A
O1203     Co1218   2.034       .  S
C1204      C1328   1.442       .  S
C1205      C1293   1.437       .  S
C1206      C1325   1.459       .  S
C1207      C1298   1.447       .  S
O1208     Co1216   2.027       .  S
O1209     Co1217   1.974       .  S
O1210     Co1218   1.988       .  S
O1211     Co1671   2.008   1_545  S
O1212     Co1217   1.990       .  S
O1213     Co1216   2.009       .  S
O1214     Co1219   1.945       .  S
O1215     Co1670   1.972       .  S
Co1216     O1220   2.059       .  S
Co1217     O1672   2.029   1_545  S
Co1218     O1650   2.041       .  S
Co1218     O1667   1.972       .  S
Co1218     O1220   2.087       .  S
Co1219     O1654   1.944       .  S
Co1219     O1663   2.007       .  S
Co1219     O1220   2.054       .  S
O1220     Co1669   2.029       .  S
C1221      C1299   1.435   1_455  S
C1222      C1329   1.423       .  S
C1223      C1332   1.434       .  S
C1224      C1296   1.448       .  S
N1225      C1230   1.347       .  A
N1225      C1229   1.355       .  A
N1225      H1257   1.037       .  S
N1226      C1233   1.358       .  A
N1226      C1234   1.350       .  A
N1227      C1232   1.363       .  A
N1227      C1231   1.353       .  A
N1227      H1258   1.038       .  S
N1228      C1235   1.346       .  A
N1228      C1236   1.351       .  A
C1229      C1237   1.386       .  A
C1229      C1245   1.412       .  A
C1230      C1246   1.409       .  A
C1230      C1238   1.389       .  A
C1231      C1239   1.391       .  A
C1231      C1248   1.425       .  A
C1232      C1247   1.425       .  A
C1232      C1240   1.385       .  A
C1233      C1245   1.417       .  A
C1233      C1241   1.383       .  A
C1234      C1248   1.420       .  A
C1234      C1242   1.391       .  A
C1235      C1243   1.390       .  A
C1235      C1246   1.408       .  A
C1236      C1244   1.385       .  A
C1236      C1247   1.405       .  A
C1237      C1238   1.374       .  A
C1237      H1249   1.082       .  S
C1238      H1250   1.083       .  S
C1239      C1240   1.383       .  A
C1239      H1251   1.082       .  S
C1240      H1252   1.082       .  S
C1241      C1242   1.376       .  A
C1241      H1253   1.082       .  S
C1242      H1254   1.082       .  S
C1243      C1244   1.368       .  A
C1243      H1255   1.082       .  S
C1244      H1256   1.083       .  S
C1245      C1324   1.467       .  S
C1246      C1322   1.428       .  S
C1247      C1303   1.468       .  S
C1248      C1302   1.449       .  S
N1259      C1264   1.353       .  A
N1259      C1263   1.345       .  A
N1259      H1291   1.039       .  S
N1260      C1267   1.355       .  A
N1260      C1268   1.356       .  A
N1261      C1266   1.360       .  A
N1261      C1265   1.364       .  A
N1261      H1292   1.037       .  S
N1262      C1269   1.354       .  A
N1262      C1270   1.346       .  A
C1263      C1271   1.389       .  A
C1263      C1279   1.403       .  A
C1264      C1280   1.406       .  A
C1264      C1272   1.387       .  A
C1265      C1273   1.386       .  A
C1265      C1282   1.432       .  A
C1266      C1281   1.431       .  A
C1266      C1274   1.389       .  A
C1267      C1279   1.419       .  A
C1267      C1275   1.386       .  A
C1268      C1282   1.422       .  A
C1268      C1276   1.387       .  A
C1269      C1277   1.383       .  A
C1269      C1280   1.409       .  A
C1270      C1278   1.391       .  A
C1270      C1281   1.413       .  A
C1271      C1272   1.367       .  A
C1271      H1283   1.081       .  S
C1272      H1284   1.082       .  S
C1273      C1274   1.383       .  A
C1273      H1285   1.082       .  S
C1274      H1286   1.082       .  S
C1275      C1276   1.380       .  A
C1275      H1287   1.082       .  S
C1276      H1288   1.082       .  S
C1277      C1278   1.374       .  A
C1277      H1289   1.082       .  S
C1278      H1290   1.082       .  S
C1279      C1308   1.443       .  S
C1280      C1306   1.453       .  S
C1281      C1319   1.454       .  S
C1282      C1318   1.484       .  S
C1293      C1294   1.210       .  T
C1295      C1296   1.214       .  T
C1297      C1298   1.213       .  T
C1299      C1300   1.208       .  T
C1301      C1302   1.206       .  T
C1303      C1304   1.218       .  T
C1305      C1306   1.208       .  T
C1307      C1308   1.203       .  T
C1309      C1310   1.209       .  T
C1311      C1312   1.214       .  T
C1313      C1314   1.209       .  T
C1315      C1316   1.205       .  T
C1317      C1318   1.227       .  T
C1319      C1320   1.209       .  T
C1321      C1322   1.192       .  T
C1323      C1324   1.217       .  T
C1325      C1326   1.223       .  T
C1327      C1328   1.212       .  T
C1329      C1330   1.199       .  T
C1331      C1332   1.208       .  T
C1333      C1334   1.215       .  T
C1335      C1336   1.211       .  T
C1337      C1338   1.201       .  T
C1339      C1340   1.208       .  T
C1341      C1342   1.205       .  T
C1343      C1344   1.210       .  T
C1345      C1346   1.205       .  T
C1347      C1348   1.214       .  T
C1349      C1350   1.213       .  T
C1351      C1352   1.209       .  T
C1353      C1354   1.215       .  T
C1355      C1356   1.202       .  T
N1357      C1362   1.352       .  A
N1357      C1361   1.353       .  A
N1357      H1389   1.038       .  S
N1358      C1365   1.348       .  A
N1358      C1366   1.350       .  A
N1359      C1364   1.356       .  A
N1359      C1363   1.358       .  A
N1359      H1390   1.039       .  S
N1360      C1367   1.357       .  A
N1360      C1368   1.354       .  A
C1361      C1369   1.388       .  A
C1361      C1377   1.415       .  A
C1362      C1378   1.413       .  A
C1362      C1370   1.386       .  A
C1363      C1371   1.386       .  A
C1363      C1380   1.419       .  A
C1364      C1379   1.420       .  A
C1364      C1372   1.388       .  A
C1365      C1377   1.409       .  A
C1365      C1373   1.388       .  A
C1366      C1380   1.408       .  A
C1366      C1374   1.387       .  A
C1367      C1375   1.385       .  A
C1367      C1378   1.419       .  A
C1368      C1376   1.388       .  A
C1368      C1379   1.421       .  A
C1369      C1370   1.378       .  A
C1369      H1381   1.082       .  S
C1370      H1382   1.082       .  S
C1371      C1372   1.378       .  A
C1371      H1383   1.082       .  S
C1372      H1384   1.082       .  S
C1373      C1374   1.370       .  A
C1373      H1385   1.082       .  S
C1374      H1386   1.082       .  S
C1375      C1376   1.379       .  A
C1375      H1387   1.082       .  S
C1376      H1388   1.082       .  S
C1377      C1808   1.445       .  S
C1378      C1806   1.463       .  S
C1379      C1801   1.461       .  S
C1380      C1803   1.456       .  S
N1391      C1396   1.355       .  A
N1391      C1395   1.353       .  A
N1391      H1423   1.039       .  S
N1392      C1399   1.354       .  A
N1392      C1400   1.356       .  A
N1393      C1398   1.355       .  A
N1393      C1397   1.354       .  A
N1393      H1424   1.036       .  S
N1394      C1401   1.349       .  A
N1394      C1402   1.349       .  A
C1395      C1403   1.389       .  A
C1395      C1411   1.416       .  A
C1396      C1412   1.415       .  A
C1396      C1404   1.387       .  A
C1397      C1405   1.388       .  A
C1397      C1414   1.417       .  A
C1398      C1413   1.416       .  A
C1398      C1406   1.387       .  A
C1399      C1411   1.420       .  A
C1399      C1407   1.387       .  A
C1400      C1414   1.421       .  A
C1400      C1408   1.386       .  A
C1401      C1409   1.387       .  A
C1401      C1412   1.407       .  A
C1402      C1410   1.388       .  A
C1402      C1413   1.409       .  A
C1403      C1404   1.377       .  A
C1403      H1415   1.082       .  S
C1404      H1416   1.083       .  S
C1405      C1406   1.377       .  A
C1405      H1417   1.082       .  S
C1406      H1418   1.082       .  S
C1407      C1408   1.378       .  A
C1407      H1419   1.082       .  S
C1408      H1420   1.082       .  S
C1409      C1410   1.369       .  A
C1409      H1421   1.082       .  S
C1410      H1422   1.082       .  S
C1411      C1795   1.457       .  S
C1412      C1794   1.448       .  S
C1413      C1798   1.448       .  S
C1414      C1799   1.463       .  S
O1425      C1433   1.256       .  A
O1425     Co1445   1.969       .  S
O1426      C1434   1.270       .  A
O1426     Co1446   1.971       .  S
O1427      C1435   1.296       .  A
O1427     Co1447   2.112       .  S
O1428      C1436   1.270       .  A
O1429      C1435   1.266       .  A
O1429     Co1446   1.905       .  S
O1430      C1436   1.264       .  A
O1430     Co1445   1.973       .  S
O1431      C1434   1.280       .  A
O1431     Co1448   2.040       .  S
O1432      C1433   1.262       .  A
C1433      C1807   1.427       .  S
C1434      C1786   1.447       .  S
C1435      C1805   1.449       .  S
C1436      C1788   1.441       .  S
O1437      C1450   1.270       .  A
O1437     Co1445   2.022       .  S
O1438      C1451   1.290       .  A
O1438     Co1446   2.094       .  S
O1439      C1452   1.269       .  A
O1440      C1453   1.248       .  A
O1440     Co1448   1.954       .  S
O1441      C1453   1.260       .  A
O1441     Co1446   2.008       .  S
O1442      C1452   1.276       .  A
O1442     Co1445   2.031       .  S
O1443      C1450   1.258       .  A
O1444      C1451   1.266       .  A
O1444     Co1447   1.898       .  S
Co1446     O1449   2.038       .  S
Co1447     O1449   2.025       .  S
Co1448     O1449   2.033       .  S
C1450      C1791   1.437       .  S
C1451      C1797   1.431       .  S
C1452      C1800   1.447       .  S
C1453      C1790   1.426       .  S
N1454      C1459   1.349       .  A
N1454      C1458   1.353       .  A
N1454      H1486   1.036       .  S
N1455      C1462   1.355       .  A
N1455      C1463   1.352       .  A
N1456      C1461   1.360       .  A
N1456      C1460   1.355       .  A
N1456      H1487   1.035       .  S
N1457      C1464   1.350       .  A
N1457      C1465   1.351       .  A
C1458      C1474   1.412       .  A
C1459      C1475   1.409       .  A
C1460      C1468   1.389       .  A
C1460      C1477   1.425       .  A
C1461      C1476   1.425       .  A
C1461      C1469   1.386       .  A
C1462      C1474   1.416       .  A
C1462      C1470   1.386       .  A
C1463      C1477   1.417       .  A
C1463      C1471   1.388       .  A
C1464      C1472   1.388       .  A
C1464      C1475   1.409       .  A
C1465      C1473   1.387       .  A
C1465      C1476   1.410       .  A
C1466      C1467   1.377       .  A
C1466      H1478   1.083       .  S
C1467      H1479   1.083       .  S
C1468      C1469   1.382       .  A
C1468      H1480   1.082       .  S
C1469      H1481   1.082       .  S
C1470      C1471   1.374       .  A
C1470      H1482   1.083       .  S
C1471      H1483   1.082       .  S
C1472      C1473   1.369       .  A
C1472      H1484   1.082       .  S
C1473      H1485   1.082       .  S
C1474      C1783   1.455       .  S
C1475      C1782   1.439       .  S
C1476      C1785   1.463       .  S
C1477      C1787   1.458       .  S
N1488      C1493   1.364       .  A
N1488      C1492   1.359       .  A
N1488      H1520   1.033       .  S
N1489      C1496   1.348       .  A
N1489      C1497   1.354       .  A
N1490      C1495   1.344       .  A
N1490      C1494   1.352       .  A
N1490      H1521   1.039       .  S
N1491      C1498   1.352       .  A
N1491      C1499   1.352       .  A
C1492      C1500   1.389       .  A
C1492      C1508   1.433       .  A
C1493      C1509   1.435       .  A
C1493      C1501   1.388       .  A
C1494      C1502   1.388       .  A
C1494      C1511   1.406       .  A
C1495      C1510   1.401       .  A
C1495      C1503   1.388       .  A
C1496      C1508   1.417       .  A
C1496      C1504   1.391       .  A
C1497      C1511   1.410       .  A
C1497      C1505   1.383       .  A
C1498      C1506   1.389       .  A
C1498      C1509   1.419       .  A
C1499      C1507   1.384       .  A
C1499      C1510   1.411       .  A
C1500      C1501   1.385       .  A
C1500      H1512   1.082       .  S
C1501      H1513   1.082       .  S
C1502      C1503   1.372       .  A
C1502      H1514   1.082       .  S
C1503      H1515   1.083       .  S
C1504      C1505   1.374       .  A
C1504      H1516   1.082       .  S
C1505      H1517   1.082       .  S
C1506      C1507   1.378       .  A
C1506      H1518   1.082       .  S
C1507      H1519   1.082       .  S
C1508      C1779   1.458       .  S
C1509      C1778   1.476       .  S
C1510      C1789   1.440       .  S
C1511      C1792   1.453       .  S
O1522     Co1542   1.950   1_565  S
O1523      C1531   1.274   1_545  A
O1523     Co1543   2.029       .  S
O1524      C1532   1.238       .  A
O1524     Co1544   1.992   1_565  S
O1525      C1533   1.265       .  A
O1525     Co1545   1.982       .  S
O1526     Co1543   2.042   1_565  S
O1527      C1533   1.266       .  A
O1527     Co1542   2.003   1_565  S
O1528      C1531   1.262       .  A
O1528     Co1545   1.967       .  S
O1529      C1530   1.281       .  A
O1529     Co1544   2.035   1_565  S
C1530      C1804   1.436       .  S
C1531      C1772   1.438       .  S
C1532      C1769   1.467       .  S
C1533      C1796   1.441       .  S
O1534      C1547   1.252       .  A
O1536      C1549   1.257       .  A
O1537      C1550   1.268       .  A
O1538      C1550   1.268       .  A
O1540      C1547   1.268       .  A
O1541      C1548   1.291       .  A
Co1542     O1546   2.068   1_545  S
Co1543     O1546   2.092   1_545  S
Co1545     O1546   2.061       .  S
C1547      C1793   1.429       .  S
C1548      C1773   1.409       .  S
C1549      C1802   1.445   1_455  S
C1550      C1775   1.448       .  S
O1551      C1559   1.281       .  A
O1551     Co1571   1.869   1_556  S
O1552      C1560   1.260       .  A
O1552     Co1572   1.982       .  S
O1553      C1561   1.297       .  A
O1553     Co1573   2.084       .  S
O1554     Co1574   2.028       .  S
O1555      C1561   1.271       .  A
O1555     Co1572   1.900   1_556  S
O1556      C1562   1.271       .  A
O1556     Co1571   1.976       .  S
O1557      C1560   1.264       .  A
O1557     Co1574   2.001       .  S
O1558     Co1573   2.119       .  S
C1559      C1767   1.433       .  S
C1560      C1753   1.432       .  S
C1561      C1765   1.438       .  S
C1562      C1756   1.452       .  S
O1563      C1576   1.278       .  A
O1563     Co1571   2.028       .  S
O1564      C1577   1.297       .  A
O1564     Co1572   2.085   1_556  S
O1565     Co1573   1.992       .  S
O1566      C1579   1.264       .  A
O1566     Co1574   1.971       .  S
O1567      C1579   1.276       .  A
O1567     Co1572   2.021       .  S
O1568      C1578   1.253       .  A
O1568     Co1571   2.002   1_556  S
O1569     Co1574   1.956       .  S
O1570      C1577   1.275       .  A
O1570     Co1573   1.906       .  S
Co1572     O1575   1.976       .  S
Co1573     O1575   2.027   1_556  S
Co1574     O1575   2.010       .  S
C1576      C1759   1.426       .  S
C1577      C1762   1.439       .  S
C1578      C1763   1.445       .  S
C1579      C1757   1.437       .  S
N1580      C1585   1.356       .  A
N1580      C1584   1.357       .  A
N1580      H1612   1.036       .  S
N1581      C1588   1.354       .  A
N1581      C1589   1.352       .  A
N1582      C1587   1.356       .  A
N1582      C1586   1.355       .  A
N1582      H1613   1.033       .  S
N1583      C1590   1.351       .  A
N1583      C1591   1.354       .  A
C1584      C1592   1.386       .  A
C1584      C1600   1.419       .  A
C1585      C1601   1.422       .  A
C1585      C1593   1.389       .  A
C1586      C1594   1.390       .  A
C1586      C1603   1.422       .  A
C1587      C1602   1.419       .  A
C1587      C1595   1.386       .  A
C1588      C1600   1.414       .  A
C1588      C1596   1.386       .  A
C1589      C1603   1.417       .  A
C1589      C1597   1.389       .  A
C1590      C1598   1.387       .  A
C1590      C1601   1.413       .  A
C1591      C1599   1.388       .  A
C1591      C1602   1.417       .  A
C1592      C1593   1.380       .  A
C1592      H1604   1.082       .  S
C1593      H1605   1.083       .  S
C1594      C1595   1.381       .  A
C1594      H1606   1.083       .  S
C1595      H1607   1.082       .  S
C1596      C1597   1.373       .  A
C1596      H1608   1.082       .  S
C1597      H1609   1.082       .  S
C1598      C1599   1.373       .  A
C1598      H1610   1.082       .  S
C1599      H1611   1.082       .  S
C1600      C1764   1.463       .  S
C1601      C1761   1.455       .  S
C1602      C1749   1.462       .  S
C1603      C1752   1.455       .  S
N1614      C1619   1.356       .  A
N1614      C1618   1.360       .  A
N1614      H1646   1.039       .  S
N1615      C1622   1.349       .  A
N1615      C1623   1.352       .  A
N1616      C1621   1.352       .  A
N1616      C1620   1.349       .  A
N1616      H1647   1.038       .  S
N1617      C1624   1.352       .  A
N1617      C1625   1.354       .  A
C1618      C1626   1.386       .  A
C1618      C1634   1.422       .  A
C1619      C1635   1.424       .  A
C1619      C1627   1.389       .  A
C1620      C1628   1.386       .  A
C1620      C1637   1.405       .  A
C1621      C1636   1.411       .  A
C1621      C1629   1.388       .  A
C1622      C1634   1.411       .  A
C1622      C1630   1.389       .  A
C1623      C1637   1.408       .  A
C1623      C1631   1.384       .  A
C1624      C1632   1.388       .  A
C1624      C1635   1.416       .  A
C1625      C1633   1.386       .  A
C1625      C1636   1.417       .  A
C1626      C1627   1.381       .  A
C1626      H1638   1.082       .  S
C1627      H1639   1.082       .  S
C1628      C1629   1.377       .  A
C1628      H1640   1.083       .  S
C1629      H1641   1.082       .  S
C1630      C1631   1.373       .  A
C1630      H1642   1.082       .  S
C1631      H1643   1.082       .  S
C1632      C1633   1.377       .  A
C1632      H1644   1.082       .  S
C1633      H1645   1.082       .  S
C1634      C1747   1.460       .  S
C1635      C1746   1.459       .  S
C1636      C1766   1.455       .  S
C1637      C1768   1.445       .  S
O1648      C1656   1.257       .  A
O1648     Co1668   1.964       .  S
O1649      C1657   1.280       .  A
O1649     Co1669   2.039       .  S
O1650      C1658   1.251       .  A
O1651      C1659   1.275       .  A
O1651     Co1671   2.030       .  S
O1652      C1658   1.238       .  A
O1652     Co1669   1.980       .  S
O1653      C1659   1.263       .  A
O1653     Co1668   1.970       .  S
O1654      C1657   1.258       .  A
O1655      C1656   1.273       .  A
O1655     Co1670   2.033   1_565  S
C1656      C1780   1.441       .  S
C1657      C1745   1.437       .  S
C1658      C1777   1.459       .  S
C1659      C1750   1.448       .  S
O1660     Co1668   2.027       .  S
O1661     Co1669   1.976       .  S
O1662     Co1670   1.989   1_565  S
O1664     Co1669   1.989       .  S
O1665     Co1668   2.009       .  S
O1666     Co1671   1.945       .  S
Co1668     O1672   2.059       .  S
Co1670     O1672   2.088   1_545  S
Co1671     O1672   2.055       .  S
C1673      C1751   1.435   1_455  S
C1674      C1781   1.423       .  S
C1675      C1784   1.435       .  S
C1676      C1748   1.447       .  S
N1677      C1682   1.347       .  A
N1677      C1681   1.355       .  A
N1677      H1709   1.037       .  S
N1678      C1685   1.359       .  A
N1678      C1686   1.350       .  A
N1679      C1684   1.363       .  A
N1679      C1683   1.353       .  A
N1679      H1710   1.037       .  S
N1680      C1687   1.346       .  A
N1680      C1688   1.351       .  A
C1681      C1689   1.386       .  A
C1681      C1697   1.411       .  A
C1682      C1698   1.408       .  A
C1682      C1690   1.389       .  A
C1683      C1691   1.391       .  A
C1683      C1700   1.426       .  A
C1684      C1699   1.425       .  A
C1684      C1692   1.384       .  A
C1685      C1697   1.417       .  A
C1685      C1693   1.383       .  A
C1686      C1700   1.420       .  A
C1686      C1694   1.391       .  A
C1687      C1695   1.390       .  A
C1687      C1698   1.408       .  A
C1688      C1696   1.385       .  A
C1688      C1699   1.406       .  A
C1689      C1690   1.374       .  A
C1689      H1701   1.082       .  S
C1690      H1702   1.083       .  S
C1691      C1692   1.382       .  A
C1691      H1703   1.082       .  S
C1692      H1704   1.082       .  S
C1693      C1694   1.376       .  A
C1693      H1705   1.082       .  S
C1694      H1706   1.082       .  S
C1695      C1696   1.368       .  A
C1695      H1707   1.082       .  S
C1696      H1708   1.083       .  S
C1697      C1776   1.467       .  S
C1698      C1774   1.427       .  S
C1699      C1755   1.468       .  S
C1700      C1754   1.449       .  S
N1711      C1716   1.353       .  A
N1711      C1715   1.345       .  A
N1711      H1743   1.039       .  S
N1712      C1719   1.355       .  A
N1712      C1720   1.356       .  A
N1713      C1718   1.360       .  A
N1713      C1717   1.364       .  A
N1713      H1744   1.037       .  S
N1714      C1721   1.354       .  A
N1714      C1722   1.346       .  A
C1715      C1723   1.389       .  A
C1715      C1731   1.402       .  A
C1716      C1732   1.406       .  A
C1716      C1724   1.387       .  A
C1717      C1725   1.386       .  A
C1717      C1734   1.432       .  A
C1718      C1733   1.431       .  A
C1718      C1726   1.389       .  A
C1719      C1731   1.418       .  A
C1719      C1727   1.386       .  A
C1720      C1734   1.422       .  A
C1720      C1728   1.387       .  A
C1721      C1729   1.383       .  A
C1721      C1732   1.409       .  A
C1722      C1730   1.391       .  A
C1722      C1733   1.413       .  A
C1723      C1724   1.367       .  A
C1723      H1735   1.081       .  S
C1724      H1736   1.082       .  S
C1725      C1726   1.383       .  A
C1725      H1737   1.082       .  S
C1726      H1738   1.082       .  S
C1727      C1728   1.380       .  A
C1727      H1739   1.082       .  S
C1728      H1740   1.082       .  S
C1729      C1730   1.375       .  A
C1729      H1741   1.082       .  S
C1730      H1742   1.082       .  S
C1731      C1760   1.443       .  S
C1732      C1758   1.453       .  S
C1733      C1771   1.455       .  S
C1734      C1770   1.483       .  S
C1745      C1746   1.211       .  T
C1747      C1748   1.213       .  T
C1749      C1750   1.214       .  T
C1751      C1752   1.208       .  T
C1753      C1754   1.205       .  T
C1755      C1756   1.218       .  T
C1757      C1758   1.208       .  T
C1759      C1760   1.203       .  T
C1761      C1762   1.209       .  T
C1763      C1764   1.214       .  T
C1765      C1766   1.209       .  T
C1767      C1768   1.204       .  T
C1769      C1770   1.227       .  T
C1771      C1772   1.209       .  T
C1773      C1774   1.191       .  T
C1775      C1776   1.216       .  T
C1777      C1778   1.223       .  T
C1779      C1780   1.211       .  T
C1781      C1782   1.199       .  T
C1783      C1784   1.208       .  T
C1785      C1786   1.214       .  T
C1787      C1788   1.211       .  T
C1789      C1790   1.202       .  T
C1791      C1792   1.208       .  T
C1793      C1794   1.204       .  T
C1795      C1796   1.210       .  T
C1797      C1798   1.205       .  T
C1799      C1800   1.214       .  T
C1801      C1802   1.213       .  T
C1803      C1804   1.209       .  T
C1805      C1806   1.215       .  T
C1807      C1808   1.203       .  T
