geometry optimzed in LAMMPS
_audit_creation_date              2020-11-30 
_audit_creation_method            'lammps2cif' 
_symmetry_space_group_name_H-M    'P1' 
_symmetry_Int_Tables_number       1 
_symmetry_cell_setting            triclinic 
loop_ 
_symmetry_equiv_pos_as_xyz 
  x,y,z 
_cell_length_a                    40.15182396 
_cell_length_b                    40.873835717258586 
_cell_length_c                    102.38477183834634 
_cell_angle_alpha                 90.95066646770559 
_cell_angle_beta                  90.02518069721506 
_cell_angle_gamma                 120.01828305156205 
loop_ 
_atom_site_label 
_atom_site_type_symbol 
_atom_site_fract_x 
_atom_site_fract_y 
_atom_site_fract_z 
_atom_site_charge 
C1          C  0.65206369  0.07159187  0.72925878     0.03800
C2          C  0.68515052  0.08367968  0.72150439    -0.12400
C3          C  0.68415922  0.06207970  0.71044921     0.01300
C4          C  0.64992143  0.02877728  0.70715166    -0.10900
C5          C  0.61692952  0.01627879  0.71481861     0.03800
C6          C  0.61852455  0.03765455  0.72586191    -0.10300
H7          H  0.71105422  0.11009294  0.72371550     0.09400
H8          H  0.64967363  0.01213124  0.69878433     0.06900
H9          H  0.59301876  0.02794031  0.73179067     0.06800
C10         C  0.98895009  0.15938120  0.64810396     0.03800
C11         C  0.95522352  0.14555336  0.65560873    -0.12400
C12         C  0.95463157  0.16575275  0.66686267     0.01300
C13         C  0.98788022  0.19974846  0.67042705    -0.10900
C14         C  0.02164036  0.21372580  0.66305937     0.03800
C15         C  0.02170433  0.19332124  0.65195609    -0.10300
H16         H  0.93029523  0.11868617  0.65300570     0.09400
H17         H  0.98680972  0.21546572  0.67885814     0.06900
H18         H  0.04769703  0.20399406  0.64623013     0.06800
C19         C  0.55516080  0.82996893  0.80872258     0.03800
C20         C  0.55886089  0.86608493  0.80983374    -0.12400
C21         C  0.57657600  0.88947834  0.82082102     0.01300
C22         C  0.59245486  0.87729570  0.83050587    -0.10900
C23         C  0.58913001  0.84154525  0.82966300     0.03800
C24         C  0.57036098  0.81791048  0.81874306    -0.10300
H25         H  0.54852934  0.87657615  0.80211094     0.09400
H26         H  0.60794537  0.89575677  0.83871926     0.06900
H27         H  0.56838630  0.79055089  0.81784742     0.06800
C28         C  0.71326869  0.70325209  0.91188514     0.03800
C29         C  0.70547835  0.66665715  0.90835842    -0.12400
C30         C  0.67706274  0.64508233  0.89894594     0.01300
C31         C  0.65651703  0.66021102  0.89305641    -0.10900
C32         C  0.66529842  0.69735360  0.89579743     0.03800
C33         C  0.69354340  0.71876960  0.90533077    -0.10300
H34         H  0.72097380  0.65470051  0.91311420     0.09400
H35         H  0.63475790  0.64346611  0.88574081     0.06900
H36         H  0.70031534  0.74738049  0.90753520     0.06800
C37         C  0.86754447  0.55212330  0.49643615     0.03800
C38         C  0.84416036  0.52961346  0.48601720    -0.12400
C39         C  0.83385426  0.49158632  0.48469191     0.01300
C40         C  0.84621107  0.47556856  0.49416817    -0.10900
C41         C  0.87105390  0.49784970  0.50428335     0.03800
C42         C  0.88179306  0.53626425  0.50545317    -0.10300
H43         H  0.83406896  0.54186753  0.47879802     0.09400
H44         H  0.83740249  0.44584507  0.49356124     0.06900
H45         H  0.90106803  0.55338861  0.51327693     0.06800
C46         C  0.09222864  0.40913205  0.56470233     0.03800
C47         C  0.07519346  0.42803078  0.55896266    -0.12400
C48         C  0.04640425  0.41031042  0.54944112     0.01300
C49         C  0.03605236  0.37361259  0.54508254    -0.10900
C50         C  0.05402201  0.35461273  0.55026544     0.03800
C51         C  0.08164814  0.37226242  0.56039957    -0.10300
H52         H  0.08353866  0.45648021  0.56229366     0.09400
H53         H  0.01501244  0.36016521  0.53729429     0.06900
H54         H  0.09496766  0.35777418  0.56486803     0.06800
C55         C  0.63032431  0.52935962  0.96179256     0.03800
C56         C  0.65604769  0.56622244  0.96612705    -0.12400
C57         C  0.64653775  0.58298490  0.97645172     0.01300
C58         C  0.60981469  0.56279230  0.98211753    -0.10900
C59         C  0.58331981  0.52602848  0.97753174     0.03800
C60         C  0.59394883  0.50963120  0.96747268    -0.10300
H61         H  0.68412892  0.58157977  0.96166025     0.09400
H62         H  0.60198096  0.57536748  0.99003710     0.06900
H63         H  0.57326006  0.48155660  0.96388699     0.06800
C64         C  0.32604444  0.41880718  0.05818665     0.03800
C65         C  0.34701447  0.43726210  0.04713531    -0.12400
C66         C  0.34189546  0.41765165  0.03530821     0.01300
C67         C  0.31359366  0.37921201  0.03429088    -0.10900
C68         C  0.29087906  0.36040876  0.04515988     0.03800
C69         C  0.29797964  0.38027207  0.05715966    -0.10300
H70         H  0.36880123  0.46692686  0.04790293     0.09400
H71         H  0.30965507  0.36417843  0.02511611     0.06900
H72         H  0.28072478  0.36591360  0.06554846     0.06800
C73         C  0.01040493  0.74384467  0.40146745     0.03800
C74         C  0.97774371  0.70748422  0.40158223    -0.12400
C75         C  0.97114136  0.68094990  0.39156345     0.01300
C76         C  0.99787652  0.69128439  0.38137402    -0.10900
C77         C  0.03114544  0.72692246  0.38134642     0.03800
C78         C  0.03698392  0.75344054  0.39130132    -0.10300
H79         H  0.95675800  0.70024457  0.40926270     0.09400
H80         H  0.99296520  0.67196964  0.37328608     0.06900
H81         H  0.06188002  0.78160310  0.39106907     0.06800
C82         C  0.31029018  0.82317214  0.30573343     0.03800
C83         C  0.27956393  0.80518252  0.31451869    -0.12400
C84         C  0.28061387  0.82291386  0.32656567     0.01300
C85         C  0.31274832  0.85806398  0.32980004    -0.10900
C86         C  0.34302866  0.87681639  0.32097363     0.03800
C87         C  0.34117119  0.85916386  0.30894019    -0.10300
H88         H  0.25533807  0.77766249  0.31205407     0.09400
H89         H  0.31364978  0.87037375  0.33930011     0.06900
H90         H  0.36461206  0.87314282  0.30211406     0.06800
C91         C  0.22260341  0.16267100  0.14304826     0.03800
C92         C  0.23739287  0.14096329  0.14834378    -0.12400
C93         C  0.26421033  0.15503594  0.15864135     0.01300
C94         C  0.27541614  0.19108129  0.16400228    -0.10900
C95         C  0.25981382  0.21267012  0.15923553     0.03800
C96         C  0.23336641  0.19818773  0.14870335    -0.10300
H97         H  0.22795582  0.11278804  0.14450079     0.09400
H98         H  0.29522824  0.20203178  0.17221590     0.06900
H99         H  0.22196273  0.21484080  0.14458648     0.06800
C100        C  0.43514181  0.05109471  0.23675987     0.03800
C101        C  0.43054949  0.01564493  0.23331079    -0.12400
C102        C  0.41481887  0.99825096  0.22114269     0.01300
C103        C  0.40232957  0.01634437  0.21242831    -0.10900
C104        C  0.40589955  0.05150058  0.21581052     0.03800
C105        C  0.42248158  0.06863531  0.22790705    -0.10300
H106        H  0.43999650  0.00172365  0.24007410     0.09400
H107        H  0.38977735  0.00318533  0.20310393     0.06900
H108        H  0.42447032  0.09534544  0.23039061     0.06800
C109        C  0.10569452  0.64789334  0.80522705     0.03800
C110        C  0.07121769  0.61355093  0.80689685    -0.12400
C111        C  0.04667906  0.60920009  0.81732030     0.01300
C112        C  0.05589335  0.64030340  0.82565361    -0.10900
C113        C  0.09001800  0.67485322  0.82410314     0.03800
C114        C  0.11501702  0.67829528  0.81390200    -0.10300
H115        H  0.06427605  0.58965408  0.80044390     0.09400
H116        H  0.03636904  0.63782259  0.83337290     0.06900
H117        H  0.14132559  0.70473656  0.81240919     0.06800
C118        C  0.18572318  0.95785755  0.89788492     0.03800
C119        C  0.17650862  0.92401190  0.89106302    -0.12400
C120        C  0.20267990  0.92311999  0.88208166     0.01300
C121        C  0.23778983  0.95613975  0.87999368    -0.10900
C122        C  0.24671885  0.99033693  0.88628229     0.03800
C123        C  0.22055653  0.99088306  0.89520655    -0.10300
H124        H  0.14963162  0.89849353  0.89287864     0.09400
H125        H  0.25842028  0.95484643  0.87351403     0.06900
H126        H  0.22784794  0.01704953  0.90036153     0.06800
C127        C  0.77802540  0.72644973  0.63717763     0.03800
C128        C  0.79352219  0.71203052  0.64611068    -0.12400
C129        C  0.77293995  0.69240555  0.65709947     0.01300
C130        C  0.73626185  0.68786478  0.65935777    -0.10900
C131        C  0.72037554  0.70274613  0.65055876     0.03800
C132        C  0.74127763  0.72150465  0.63942952    -0.10300
H133        H  0.82179909  0.71560572  0.64437557     0.09400
H134        H  0.72021475  0.67269441  0.66782499     0.06900
H135        H  0.72841766  0.73165935  0.63246555     0.06800
C136        C  0.85903810  0.49784375  0.73176559     0.03800
C137        C  0.84024315  0.51110248  0.72370030    -0.12400
C138        C  0.86005584  0.53659401  0.71372005     0.01300
C139        C  0.89905043  0.54783239  0.71153163    -0.10900
C140        C  0.91786495  0.53409291  0.71947979     0.03800
C141        C  0.89765357  0.50945733  0.72956151    -0.10300
H142        H  0.81007513  0.50166967  0.72513342     0.09400
H143        H  0.91464444  0.56697987  0.70375479     0.06900
H144        H  0.91213805  0.49903258  0.73574576     0.06800
C145        C  0.43285301  0.29259250  0.48046675     0.03800
C146        C  0.45524392  0.33001165  0.48518074    -0.12400
C147        C  0.44435075  0.34261036  0.49626785     0.01300
C148        C  0.41049621  0.31753947  0.50275375    -0.10900
C149        C  0.38801973  0.27985117  0.49843892     0.03800
C150        C  0.39956066  0.26742646  0.48727857    -0.10300
H151        H  0.48184786  0.34943934  0.48043165     0.09400
H152        H  0.40127767  0.32746544  0.51111946     0.06900
H153        H  0.38214425  0.23878379  0.48354921     0.06800
C154        C  0.55899245  0.62246692  0.57210645     0.03800
C155        C  0.54823804  0.58838786  0.56534438    -0.12400
C156        C  0.56655856  0.58784460  0.55376027     0.01300
C157        C  0.59687190  0.62181769  0.54900710    -0.10900
C158        C  0.60884384  0.65606080  0.55590246     0.03800
C159        C  0.58991496  0.65595395  0.56742786    -0.10300
H160        H  0.52567081  0.56184112  0.56897166     0.09400
H161        H  0.61218474  0.62127218  0.54039364     0.06900
H162        H  0.59917338  0.68234385  0.57273759     0.06800
C163        C  0.42676861  0.06390479  0.96985578     0.03800
C164        C  0.44946764  0.05319021  0.97706304    -0.12400
C165        C  0.43515993  0.03151720  0.98825734     0.01300
C166        C  0.39815706  0.02168886  0.99259950    -0.10900
C167        C  0.37566724  0.03340301  0.98586769     0.03800
C168        C  0.39006089  0.05430586  0.97439397    -0.10300
H169        H  0.47852077  0.06179520  0.97406265     0.09400
H170        H  0.38719352  0.00610997  0.00152015     0.06900
H171        H  0.37260598  0.06250363  0.96880159     0.06800
C172        C  0.57692957  0.88124438  0.05898613     0.03800
C173        C  0.56292985  0.89811258  0.05026431    -0.12400
C174        C  0.52751468  0.89648485  0.05257750     0.01300
C175        C  0.50633953  0.87794490  0.06363453    -0.10900
C176        C  0.51947552  0.86074412  0.07228644     0.03800
C177        C  0.55501400  0.86291506  0.07001421    -0.10300
H178        H  0.57931550  0.91231739  0.04176132     0.09400
H179        H  0.47885176  0.87617752  0.06540550     0.06900
H180        H  0.56576861  0.85039669  0.07686976     0.06800
C181        C  0.17377687  0.13533714  0.39289276     0.03800
C182        C  0.21034362  0.14174602  0.38961577    -0.12400
C183        C  0.22954085  0.16302130  0.37873612     0.01300
C184        C  0.21179193  0.17816393  0.37097503    -0.10900
C185        C  0.17480740  0.17172999  0.37410841     0.03800
C186        C  0.15568175  0.14942864  0.38491184    -0.10300
H187        H  0.22404916  0.13013379  0.39561656     0.09400
H188        H  0.22611891  0.19373045  0.36234650     0.06900
H189        H  0.12726914  0.14431254  0.38743578     0.06800
C190        C  0.09894121  0.38986305  0.30719199     0.03800
C191        C  0.06244909  0.38238613  0.31113275    -0.12400
C192        C  0.04341911  0.35800887  0.32145599     0.01300
C193        C  0.06097087  0.33996725  0.32771625    -0.10900
C194        C  0.09767543  0.34703830  0.32384478     0.03800
C195        C  0.11668451  0.37266361  0.31380724    -0.10300
H196        H  0.04884490  0.39597338  0.30618230     0.09400
H197        H  0.04628344  0.32080147  0.33557520     0.06900
H198        H  0.14545511  0.37914689  0.31120627     0.06800
C199        C  0.89702458  0.26190114  0.25073427     0.03800
C200        C  0.88237301  0.22676390  0.24428716    -0.12400
C201        C  0.90145877  0.22238965  0.23353786     0.01300
C202        C  0.93633959  0.25329824  0.22945991    -0.10900
C203        C  0.95143068  0.28854629  0.23593018     0.03800
C204        C  0.93186858  0.29233147  0.24664051    -0.10300
H205        H  0.85602504  0.20261173  0.24754751     0.09400
H206        H  0.95206321  0.24970362  0.22152722     0.06900
H207        H  0.94341385  0.31949713  0.25164706     0.06800
C208        C  0.77283061  0.95626434  0.14810334     0.03800
C209        C  0.79243673  0.99110036  0.15491785    -0.12400
C210        C  0.77712207  0.99770845  0.16624729     0.01300
C211        C  0.74156751  0.96921766  0.17080322    -0.10900
C212        C  0.72201041  0.93380731  0.16448060     0.03800
C213        C  0.73786758  0.92743981  0.15308630    -0.10300
H214        H  0.82030552  0.01306099  0.15172497     0.09400
H215        H  0.72868939  0.97450243  0.17927242     0.06900
H216        H  0.72265440  0.90068069  0.14782499     0.06800
C217        C  0.57295647  0.62833496  0.30221162     0.03800
C218        C  0.59057844  0.66176246  0.30994319    -0.12400
C219        C  0.60859672  0.66270141  0.32190153     0.01300
C220        C  0.60815228  0.62992078  0.32605464    -0.10900
C221        C  0.59057662  0.59653228  0.31844871     0.03800
C222        C  0.57379790  0.59634861  0.30646144    -0.10300
H223        H  0.59021308  0.68660420  0.30667057     0.09400
H224        H  0.62254117  0.63103918  0.33512459     0.06900
H225        H  0.56025084  0.57063248  0.30052065     0.06800
C226        C  0.80450689  0.95449679  0.38977115     0.03800
C227        C  0.79982581  0.98608260  0.38822798    -0.12400
C228        C  0.77863446  0.98799226  0.37769162     0.01300
C229        C  0.76292657  0.95832269  0.36837315    -0.10900
C230        C  0.76674021  0.92630989  0.36981256     0.03800
C231        C  0.78805732  0.92471549  0.38048339    -0.10300
H232        H  0.81283591  0.00940474  0.39523335     0.09400
H233        H  0.74750612  0.95985093  0.35994410     0.06900
H234        H  0.79196699  0.90052766  0.38156924     0.06800
C235        C  0.44156805  0.28854329  0.73063545     0.03800
C236        C  0.41945491  0.25289958  0.72455661    -0.12400
C237        C  0.39491456  0.24773335  0.71404617     0.01300
C238        C  0.39259162  0.27882514  0.70949164    -0.10900
C239        C  0.41493990  0.31492282  0.71529902     0.03800
C240        C  0.43940475  0.31940033  0.72587174    -0.10300
H241        H  0.42155200  0.22890494  0.72775631     0.09400
H242        H  0.37278058  0.27489672  0.70163546     0.06900
H243        H  0.45572270  0.34645040  0.73086380     0.06800
C244        C  0.20923646  0.95489904  0.64025800     0.03800
C245        C  0.22984904  0.99190324  0.64538725    -0.12400
C246        C  0.25316514  0.00031129  0.65649140     0.01300
C247        C  0.25739550  0.97155031  0.66221067    -0.10900
C248        C  0.23832280  0.93449593  0.65696904     0.03800
C249        C  0.21412669  0.92648809  0.64591079    -0.10300
H250        H  0.22778562  0.01448138  0.64076685     0.09400
H251        H  0.27633873  0.97814031  0.67058404     0.06900
H252        H  0.19843764  0.89840070  0.64165303     0.06800
C253        C  0.65075989  0.09263174  0.48597195     0.03800
C254        C  0.61761181  0.07786495  0.49375305    -0.12400
C255        C  0.61745088  0.06328965  0.50612063     0.01300
C256        C  0.65071643  0.06399170  0.51067234    -0.10900
C257        C  0.68344745  0.07744559  0.50290496     0.03800
C258        C  0.68357385  0.09242788  0.49064987    -0.10300
H259        H  0.59266100  0.07903735  0.49045294     0.09400
H260        H  0.65062944  0.05254326  0.52016251     0.06900
H261        H  0.70921254  0.10404938  0.48472711     0.06800
C262        C  0.33686556  0.84784036  0.57008400     0.03800
C263        C  0.36563478  0.87165108  0.56142136    -0.12400
C264        C  0.35702864  0.88864097  0.55113303     0.01300
C265        C  0.31946689  0.88180379  0.54964775    -0.10900
C266        C  0.29084895  0.86018444  0.55872783     0.03800
C267        C  0.29946722  0.84249771  0.56875005    -0.10300
H268        H  0.39438842  0.87588765  0.56246853     0.09400
H269        H  0.31280403  0.89414724  0.54148144     0.06900
H270        H  0.27744096  0.82576908  0.57573585     0.06800
C271        C  0.66894347  0.49787940  0.23769226     0.03800
C272        C  0.70260545  0.51342244  0.23018154    -0.12400
C273        C  0.70627115  0.53469115  0.21904504     0.01300
C274        C  0.67577797  0.54075267  0.21553422    -0.10900
C275        C  0.64175551  0.52505059  0.22291138     0.03800
C276        C  0.63886609  0.50376752  0.23388474    -0.10300
H277        H  0.72590978  0.50861622  0.23276561     0.09400
H278        H  0.67907878  0.55865311  0.20742406     0.06900
H279        H  0.61281528  0.49178580  0.23962306     0.06800
C280        C  0.97223102  0.70258118  0.13436193     0.03800
C281        C  0.93689654  0.68187250  0.14080687    -0.12400
C282        C  0.93340617  0.65937523  0.15156739     0.01300
C283        C  0.96584115  0.65729992  0.15574604    -0.10900
C284        C  0.00145176  0.67796333  0.14942278     0.03800
C285        C  0.00391809  0.69987555  0.13866347    -0.10300
H286        H  0.91183201  0.68279682  0.13744147     0.09400
H287        H  0.96302664  0.63878108  0.16358605     0.06900
H288        H  0.03113458  0.71557864  0.13367757     0.06800
C289        C  0.88194596  0.29424894  0.97403918     0.03800
C290        C  0.89822127  0.32733782  0.98189863    -0.12400
C291        C  0.91085615  0.32704534  0.99469536     0.01300
C292        C  0.90745880  0.29361827  0.99957112    -0.10900
C293        C  0.89325640  0.26090699  0.99157795     0.03800
C294        C  0.88063130  0.26170739  0.97887099    -0.10300
H295        H  0.90042926  0.35304464  0.97825382     0.09400
H296        H  0.91603484  0.29355066  0.00957933     0.06900
H297        H  0.86890103  0.23640866  0.97273966     0.06800
C298        C  0.09837321  0.61170746  0.06724764     0.03800
C299        C  0.09016258  0.64070472  0.06494593    -0.12400
C300        C  0.06728885  0.63888332  0.05425966     0.01300
C301        C  0.05168387  0.60671735  0.04592785    -0.10900
C302        C  0.06014531  0.57766938  0.04796887     0.03800
C303        C  0.08396537  0.58067119  0.05847958    -0.10300
H304        H  0.10183372  0.66504670  0.07153807     0.09400
H305        H  0.03349904  0.60420810  0.03775481     0.06900
H306        H  0.09119774  0.55870442  0.05969542     0.06800
C307        C  0.28738842  0.37023867  0.80036347     0.03800
C308        C  0.25411876  0.34713097  0.80738650    -0.12400
C309        C  0.25490385  0.32672304  0.81809876     0.01300
C310        C  0.28962030  0.32832133  0.82156801    -0.10900
C311        C  0.32369771  0.35112009  0.81458743     0.03800
C312        C  0.32219533  0.37213802  0.80399919    -0.10300
H313        H  0.22724541  0.34549674  0.80459760     0.09400
H314        H  0.28946859  0.31065124  0.82930833     0.06900
H315        H  0.34793962  0.38920599  0.79843052     0.06800
C316        C  0.98260720  0.15682996  0.90000379     0.03800
C317        C  0.01768337  0.17214892  0.89329832    -0.12400
C318        C  0.02432386  0.19497742  0.88238189     0.01300
C319        C  0.99546134  0.20267599  0.87824606    -0.10900
C320        C  0.96017173  0.18718516  0.88484457     0.03800
C321        C  0.95425713  0.16442150  0.89564109    -0.10300
H322        H  0.03969100  0.16590298  0.89634704     0.09400
H323        H  0.00105691  0.22162403  0.87026336     0.06900
H324        H  0.92719927  0.15259212  0.90080552     0.06800
O325        O  0.64129361  0.21607707  0.81804526    -0.79500
O326        O  0.76788344  0.38737451  0.86178084    -0.81000
O327        O  0.72409722  0.34450940  0.81914264    -0.78000
O328        O  0.75802194  0.27972926  0.84397356    -0.76400
O329        O  0.73242907  0.24321871  0.86197310    -0.78200
O330        O  0.67763306  0.36134597  0.81985671    -0.79100
O331        O  0.77651768  0.36085777  0.84317241    -0.80500
O332        O  0.70476513  0.26219761  0.81862633    -0.80800
Eu333      Eu  0.71551489  0.30381205  0.83759493     2.39200
O334        O  0.71707164  0.30381723  0.86049137    -0.88300
O335        O  0.65329765  0.28637152  0.83028829    -0.91900
C336        C  0.67578749  0.23286051  0.81338892     1.02800
C337        C  0.78861833  0.38664899  0.85224897     1.02600
C338        C  0.70723831  0.36198317  0.81475041     1.02600
C339        C  0.75847747  0.25870586  0.85313554     1.00400
H340        H  0.71637217  0.37291875  0.84256726     0.30200
O341        O  0.69861475  0.34786944  0.84558501    -1.00700
H342        H  0.67974245  0.22506685  0.84148014     0.30200
O343        O  0.67213283  0.24261773  0.84484658    -1.03200
O344        O  0.66941317  0.35916164  0.88719755    -0.80400
O345        O  0.54210803  0.18574756  0.84444766    -0.80000
O346        O  0.66072132  0.39580232  0.84582021    -0.78400
O347        O  0.71641566  0.27463282  0.88665664    -0.81700
O348        O  0.64516246  0.17631887  0.86098787    -0.79600
O349        O  0.59442981  0.29801689  0.81937157    -0.78200
O350        O  0.55067233  0.29505481  0.86173979    -0.79800
O351        O  0.58225686  0.22714823  0.88596553    -0.81700
O352        O  0.57582954  0.32991634  0.84340723    -0.78400
O353        O  0.62885774  0.21044813  0.88592261    -0.81100
O354        O  0.69770052  0.40485204  0.86407822    -0.76800
O355        O  0.57708041  0.23542423  0.81907501    -0.76900
O356        O  0.60742811  0.16593802  0.84287821    -0.76500
O357        O  0.73244677  0.33686816  0.88709469    -0.80000
O358        O  0.60565675  0.31377814  0.88711629    -0.79400
O359        O  0.53380709  0.21364901  0.86276139    -0.77800
Eu360      Eu  0.70025191  0.34755367  0.86852932     2.39800
Eu361      Eu  0.60970559  0.22526044  0.83744199     2.39600
Eu362      Eu  0.63593824  0.33002563  0.83831849     2.38400
Eu363      Eu  0.67297186  0.24316651  0.86786805     2.39900
Eu364      Eu  0.59383591  0.27084818  0.86833961     2.39800
O365        O  0.61113868  0.22698028  0.86038316    -0.92200
O366        O  0.63804771  0.33130155  0.86120888    -0.91100
C367        C  0.63513568  0.34368170  0.89188136     1.03000
C368        C  0.52159566  0.18729964  0.85391777     1.01700
C369        C  0.68144035  0.41564672  0.85567571     1.01100
C370        C  0.73398348  0.30841334  0.89168438     1.03100
C371        C  0.62262050  0.15503043  0.85167545     1.02000
C372        C  0.57651394  0.26423406  0.81440940     1.00900
C373        C  0.54960408  0.31493614  0.85221090     1.00900
C374        C  0.59801448  0.20874782  0.89042495     1.03500
H375        H  0.56659211  0.26135570  0.84233106     0.30900
O376        O  0.59224848  0.26900169  0.84543430    -1.04300
H377        H  0.65591371  0.28700330  0.88536864     0.33000
O378        O  0.65574896  0.28698864  0.87592915    -1.06900
O379        O  0.90857569  0.87556819  0.99043064    -0.79500
O380        O  0.97175474  0.05248453  0.03308581    -0.81000
O381        O  0.86387247  0.94192949  0.01688045    -0.78000
O382        O  0.95897769  0.00585830  0.98976625    -0.76400
O383        O  0.02223053  0.02149876  0.98904301    -0.78200
O384        O  0.85626098  0.90772338  0.03523123    -0.79100
O385        O  0.93122392  0.02577618  0.01547044    -0.80500
O386        O  0.89120272  0.92103781  0.99165627    -0.80800
Eu387      Eu  0.93009920  0.96685523  0.00905353     2.39200
O388        O  0.99351478  0.01012034  0.01579543    -0.88300
O389        O  0.91413432  0.90686359  0.01647927    -0.91900
C390        C  0.88862271  0.89059908  0.98667565     1.02800
C391        C  0.94841756  0.05199447  0.02431089     1.02600
C392        C  0.84392272  0.92186485  0.02656164     1.02600
C393        C  0.99272402  0.02245352  0.98460724     1.00400
H394        H  0.91771403  0.97702210  0.03563917     0.30200
O395        O  0.93465989  0.96886024  0.03200366    -1.00700
H396        H  0.97016245  0.94680667  0.99077158     0.30200
O397        O  0.97196044  0.94763782  0.00019787    -1.03200
O398        O  0.04411879  0.02251032  0.05647847    -0.80400
O399        O  0.98215167  0.84642642  0.01384329    -0.80000
O400        O  0.91126441  0.94135012  0.05858593    -0.78400
O401        O  0.07769638  0.05792935  0.01274509    -0.81700
O402        O  0.04207801  0.95820034  0.98778777    -0.79600
O403        O  0.87155133  0.84276747  0.03185289    -0.78200
O404        O  0.99216346  0.89127505  0.05628045    -0.79800
O405        O  0.08889322  0.95607944  0.02896268    -0.81700
O406        O  0.92896022  0.87587126  0.05716281    -0.78400
O407        O  0.09508144  0.99160779  0.01114168    -0.81100
O408        O  0.95867992  0.00345675  0.05814439    -0.76800
O409        O  0.89448241  0.83120409  0.01288660    -0.76900
O410        O  0.99518544  0.89596172  0.98819851    -0.76500
O411        O  0.05542820  0.07033140  0.03167615    -0.80000
O412        O  0.05972840  0.97576417  0.05554272    -0.79400
O413        O  0.02178253  0.87321815  0.03165713    -0.77800
Eu414      Eu  0.99824480  0.01176289  0.03873123     2.39800
Eu415      Eu  0.95576921  0.88741517  0.00772010     2.39600
Eu416      Eu  0.91696444  0.90806501  0.03932599     2.38400
Eu417      Eu  0.03507569  0.99080093  0.00704472     2.39900
Eu418      Eu  0.02281033  0.93209208  0.03742068     2.39800
O419        O  0.01898270  0.93056761  0.01445287    -0.92200
O420        O  0.98058361  0.95100607  0.04611156    -0.91100
C421        C  0.06257209  0.00624553  0.06058102     1.03000
C422        C  0.00477824  0.84677987  0.02290816     1.01700
C423        C  0.92903636  0.97541530  0.06332588     1.01100
C424        C  0.07929143  0.08026620  0.02208400     1.03100
C425        C  0.02464027  0.92418033  0.98299767     1.02000
C426        C  0.86874804  0.82198964  0.02180352     1.00900
C427        C  0.95829344  0.87413690  0.06138387     1.00900
C428        C  0.10820045  0.97713694  0.01933122     1.03500
H429        H  0.95109715  0.86369450  0.03373314     0.30900
O430        O  0.95898261  0.88875023  0.03069945    -1.04300
H431        H  0.06640754  0.01035884  0.03259965     0.33000
O432        O  0.04017910  0.99271228  0.02996160    -1.06900
O433        O  0.70039795  0.34272621  0.39529729    -0.79500
O434        O  0.66148083  0.17997203  0.34910523    -0.81000
O435        O  0.65389323  0.21668752  0.39329211    -0.78000
O436        O  0.75831207  0.28404915  0.36946577    -0.76400
O437        O  0.77115189  0.32209185  0.35182375    -0.78200
O438        O  0.59113753  0.20265175  0.39232187    -0.79100
O439        O  0.69417207  0.20261972  0.36848081    -0.80500
O440        O  0.71860626  0.29783498  0.39492147    -0.80800
Eu441      Eu  0.68990183  0.25841538  0.37521745     2.39200
O442        O  0.69319796  0.26136340  0.35238170    -0.88300
O443        O  0.64494723  0.27590821  0.38205956    -0.91900
C444        C  0.71740176  0.32603988  0.40024491     1.02800
C445        C  0.68216616  0.17926304  0.35862885     1.02600
C446        C  0.61913363  0.20067695  0.39765757     1.02600
C447        C  0.78087013  0.30590110  0.36053482     1.00400
H448        H  0.62071830  0.19036610  0.36910992     0.30200
O449        O  0.62878478  0.21569025  0.36631997    -1.00700
H450        H  0.73416915  0.33700117  0.37246459     0.30200
O451        O  0.70921240  0.32018882  0.36860331    -1.03200
O452        O  0.59233189  0.20961184  0.32413660    -0.80400
O453        O  0.63982260  0.37913643  0.36838455    -0.80000
O454        O  0.54461289  0.16792558  0.36549932    -0.78400
O455        O  0.72549064  0.29207242  0.32699504    -0.81700
O456        O  0.75382344  0.38796255  0.35468709    -0.79600
O457        O  0.57026467  0.26367233  0.39178781    -0.78200
O458        O  0.53893724  0.27059962  0.34837986    -0.79800
O459        O  0.64277845  0.34163292  0.32585480    -0.81700
O460        O  0.52516771  0.23273283  0.36612663    -0.78400
O461        O  0.70625252  0.35852678  0.32768168    -0.81100
O462        O  0.57377959  0.15909555  0.34767282    -0.76800
O463        O  0.61747904  0.32586601  0.39294195    -0.76900
O464        O  0.72468420  0.39682880  0.37253222    -0.76500
O465        O  0.67712648  0.23030458  0.32547873    -0.80000
O466        O  0.57658118  0.25619957  0.32403366    -0.79400
O467        O  0.60519488  0.35443830  0.34945104    -0.77800
Eu468      Eu  0.63268345  0.21876084  0.34338162     2.39800
Eu469      Eu  0.66397369  0.33747512  0.37546377     2.39600
Eu470      Eu  0.58409963  0.23383293  0.37315294     2.38400
Eu471      Eu  0.71290318  0.32310569  0.34568990     2.39900
Eu472      Eu  0.60729511  0.29737235  0.34336214     2.39800
O473        O  0.66787112  0.34025632  0.35255257    -0.92200
O474        O  0.58751328  0.23574769  0.35024144    -0.91100
C475        C  0.57531227  0.22625412  0.31915315     1.03000
C476        C  0.61948121  0.37964665  0.35870920     1.01700
C477        C  0.54646900  0.14751825  0.35609319     1.01100
C478        C  0.70868490  0.25872791  0.32158644     1.03100
C479        C  0.75270949  0.40800861  0.36440700     1.02000
C480        C  0.58621660  0.29717554  0.39698889     1.00900
C481        C  0.51582459  0.24830317  0.35705328     1.00900
C482        C  0.67821436  0.36022306  0.32220724     1.03500
H483        H  0.58510258  0.30286127  0.36916416     0.30900
O484        O  0.60338526  0.29543925  0.36630394    -1.04300
H485        H  0.65385959  0.28134458  0.32702203     0.33000
O486        O  0.65238823  0.28042864  0.33644222    -1.06900
O487        O  0.40799069  0.72798726  0.67312345    -0.79500
O488        O  0.24979682  0.61149109  0.72130984    -0.81000
O489        O  0.29140990  0.70901894  0.68871176    -0.78000
O490        O  0.37255020  0.70531812  0.71696378    -0.76400
O491        O  0.40103842  0.66930050  0.71962126    -0.78200
O492        O  0.25227180  0.66821707  0.67262912    -0.79100
O493        O  0.28479526  0.67446585  0.71666994    -0.80500
O494        O  0.37954388  0.74066624  0.69031801    -0.80800
Eu495      Eu  0.32737632  0.68086996  0.69842405     2.39200
O496        O  0.32213407  0.62857434  0.70957748    -0.88300
O497        O  0.32278560  0.66885920  0.67577800    -0.91900
C498        C  0.40529288  0.75076700  0.68136851     1.02800
C499        C  0.25997040  0.64653155  0.72343419     1.02600
C500        C  0.26595827  0.69908313  0.67948893     1.02600
C501        C  0.39585159  0.69719053  0.72282481     1.00400
H502        H  0.24776878  0.63236612  0.69579388     0.30200
O503        O  0.26791104  0.62723024  0.69323474    -1.00700
H504        H  0.40266436  0.69181553  0.69447193     0.30200
O505        O  0.37790769  0.67035795  0.69216811    -1.03200
O506        O  0.22865115  0.50631709  0.70133405    -0.80400
O507        O  0.38710441  0.62381298  0.65294923    -0.80000
O508        O  0.19717818  0.58282112  0.67833302    -0.78400
O509        O  0.34929006  0.58375447  0.72354283    -0.81700
O510        O  0.43758086  0.64647909  0.69430997    -0.79600
O511        O  0.28531072  0.64799339  0.65003485    -0.78200
O512        O  0.26144423  0.52505740  0.65726316    -0.79800
O513        O  0.34761637  0.52746760  0.68307990    -0.81700
O514        O  0.23376589  0.56159819  0.65435974    -0.78400
O515        O  0.38464457  0.56428131  0.70027172    -0.81100
O516        O  0.19646781  0.56163914  0.69898301    -0.76800
O517        O  0.35112886  0.67773527  0.64973807    -0.76900
O518        O  0.43828727  0.66949630  0.67400085    -0.76500
O519        O  0.28366869  0.55601720  0.72441221    -0.80000
O520        O  0.25619003  0.49294307  0.68399921    -0.79400
O521        O  0.34922841  0.56038240  0.65631921    -0.77800
Eu522      Eu  0.26224151  0.57505194  0.70459848     2.39800
Eu523      Eu  0.37328477  0.65907096  0.66939943     2.39600
Eu524      Eu  0.26341809  0.61456588  0.67056741     2.38400
Eu525      Eu  0.37198233  0.61743891  0.70306320     2.39900
Eu526      Eu  0.30783603  0.55261897  0.67518000     2.39800
O527        O  0.36696975  0.60632965  0.68042186    -0.92200
O528        O  0.25754763  0.56250433  0.68186795    -0.91100
C529        C  0.23120608  0.48320357  0.69323276     1.03000
C530        C  0.37560378  0.58886253  0.65014643     1.01700
C531        C  0.18014533  0.56718236  0.68901704     1.01100
C532        C  0.31666015  0.56292211  0.72903656     1.03100
C533        C  0.45440798  0.66215381  0.68357103     1.02000
C534        C  0.31813942  0.66974722  0.64481008     1.00900
C535        C  0.23806200  0.53300100  0.65143349     1.00900
C536        C  0.37257703  0.53565508  0.69227283     1.03500
H537        H  0.31215803  0.60025149  0.65465430     0.30900
O538        O  0.31385974  0.60502210  0.66398035    -1.04300
H539        H  0.30937774  0.54200513  0.70226771     0.33000
O540        O  0.31197280  0.56391241  0.69790545    -1.06900
O541        O  0.29653274  0.52142705  0.15360883    -0.79500
O542        O  0.43788966  0.69856021  0.19178740    -0.81000
O543        O  0.38771991  0.64843213  0.15071541    -0.78000
O544        O  0.41845685  0.58402424  0.17704827    -0.76400
O545        O  0.39531008  0.55441952  0.19647173    -0.78200
O546        O  0.34665192  0.67211334  0.15104616    -0.79100
O547        O  0.44143487  0.66537033  0.17409328    -0.80500
O548        O  0.36127073  0.56243653  0.15216915    -0.80800
Eu549      Eu  0.37803440  0.61022989  0.16993971     2.39200
O550        O  0.38229898  0.61574274  0.19285734    -0.88300
O551        O  0.31660176  0.59710951  0.16310121    -0.91900
C552        C  0.32949624  0.53312164  0.14829896     1.02800
C553        C  0.45626802  0.69344496  0.18228724     1.02600
C554        C  0.37423239  0.66851144  0.14599437     1.02600
C555        C  0.42004503  0.56629769  0.18713421     1.00400
H556        H  0.38519241  0.68264263  0.17349974     0.30200
O557        O  0.36644910  0.65888406  0.17715716    -1.00700
H558        H  0.33783395  0.53320443  0.17576789     0.30200
O559        O  0.33249097  0.55261752  0.17880737    -1.03200
O560        O  0.34268991  0.67985410  0.21934088    -0.80400
O561        O  0.20455121  0.50312590  0.18001508    -0.80000
O562        O  0.33655081  0.71322567  0.17607182    -0.78400
O563        O  0.38310776  0.59150986  0.21986363    -0.81700
O564        O  0.30592569  0.48946007  0.19538583    -0.79600
O565        O  0.26017666  0.61253122  0.15218750    -0.78200
O566        O  0.22380696  0.61916225  0.19515273    -0.79800
O567        O  0.25226811  0.55237568  0.22133054    -0.81700
O568        O  0.24828354  0.65160596  0.17626704    -0.78400
O569        O  0.29519016  0.53095428  0.22083589    -0.81100
O570        O  0.37592028  0.72412813  0.19374844    -0.76800
O571        O  0.23831321  0.54910231  0.15325249    -0.76900
O572        O  0.26394894  0.47935777  0.17855292    -0.76500
O573        O  0.40392894  0.65476375  0.21845617    -0.80000
O574        O  0.27816533  0.63690326  0.21965326    -0.79400
O575        O  0.20080150  0.53380534  0.19833609    -0.77800
Eu576      Eu  0.37075406  0.66422060  0.20011348     2.39800
Eu577      Eu  0.27069676  0.53948781  0.17203233     2.39600
Eu578      Eu  0.30482190  0.64544512  0.17032642     2.38400
Eu579      Eu  0.33713946  0.55756191  0.20177320     2.39900
Eu580      Eu  0.26295170  0.59124230  0.20193303     2.39800
O581        O  0.27528838  0.54348636  0.19490407    -0.92200
O582        O  0.30871992  0.64973100  0.19330290    -0.91100
C583        C  0.30860091  0.66584739  0.22428479     1.03000
C584        C  0.18656756  0.50605720  0.18998544     1.01700
C585        C  0.36066422  0.73497761  0.18495568     1.01100
C586        C  0.40355283  0.62630997  0.22384656     1.03100
C587        C  0.28013213  0.46807444  0.18678465     1.02000
C588        C  0.23954981  0.57814228  0.14795880     1.00900
C589        C  0.22332225  0.63908479  0.18557215     1.00900
C590        C  0.26698381  0.53314324  0.22598139     1.03500
H591        H  0.23265953  0.58048482  0.17620549     0.30900
O592        O  0.25830683  0.58716056  0.17904219    -1.04300
H593        H  0.32624848  0.60755813  0.21821554     0.33000
O594        O  0.32489466  0.60577025  0.20878318    -1.06900
O595        O  0.00394899  0.03684547  0.55470656    -0.79500
O596        O  0.87886376  0.87309679  0.50765879    -0.81000
O597        O  0.89794885  0.99239566  0.52332479    -0.78000
O598        O  0.90553574  0.91475358  0.55061272    -0.76400
O599        O  0.94468279  0.88964825  0.55368620    -0.78200
O600        O  0.93530062  0.02732300  0.50638742    -0.79100
O601        O  0.86761522  0.90255197  0.52489917    -0.80500
O602        O  0.93899938  0.99927897  0.55132765    -0.80800
Eu603      Eu  0.92858406  0.95768321  0.53225503     2.39200
O604        O  0.94021177  0.90849449  0.52619563    -0.88300
O605        O  0.98185987  0.01597828  0.52669699    -0.91900
C606        C  0.96848851  0.02455812  0.55784546     1.02800
C607        C  0.85669839  0.87581841  0.51618063     1.02600
C608        C  0.90591416  0.01574675  0.51386978     1.02600
C609        C  0.91547347  0.89350059  0.55662550     1.00400
H610        H  0.91324825  0.95332673  0.50530320     0.30200
O611        O  0.93651937  0.95731498  0.50956671    -1.00700
H612        H  0.98118485  0.96554155  0.55225039     0.30200
O613        O  0.98448354  0.96596319  0.54289252    -1.03200
O614        O  0.98193022  0.89262541  0.48633419    -0.80400
O615        O  0.10814616  0.05697641  0.53287367    -0.80000
O616        O  0.95217919  0.98967044  0.48347626    -0.78400
O617        O  0.96270397  0.85030407  0.53005254    -0.81700
O618        O  0.03319673  0.94321547  0.55725575    -0.79600
O619        O  0.01907246  0.08263512  0.51232665    -0.78200
O620        O  0.07642139  0.01558325  0.48890959    -0.79800
O621        O  0.08581668  0.94023778  0.51751560    -0.81700
O622        O  0.03969346  0.04392450  0.48745501    -0.78400
O623        O  0.05066670  0.90639439  0.53501021    -0.81100
O624        O  0.92534050  0.92524377  0.48381992    -0.76800
O625        O  0.05012657  0.08660634  0.53157401    -0.76900
O626        O  0.05987912  0.00747818  0.55710582    -0.76500
O627        O  0.93550947  0.84472693  0.50986627    -0.80000
O628        O  0.04673415  0.93008087  0.48980879    -0.79400
O629        O  0.11759312  0.02553972  0.51583394    -0.77800
Eu630      Eu  0.94816126  0.90793560  0.50342976     2.39800
Eu631      Eu  0.03796858  0.02384025  0.53710563     2.39600
Eu632      Eu  0.98936745  0.01623338  0.50394105     2.38400
Eu633      Eu  0.99561973  0.91667929  0.53701808     2.39900
Eu634      Eu  0.05577422  0.97424938  0.50796633     2.39800
O635        O  0.04871020  0.97440689  0.53080345    -0.92200
O636        O  0.00022008  0.96657897  0.49754499    -0.91100
C637        C  0.01738256  0.90354722  0.48359770     1.03000
C638        C  0.12971491  0.05206615  0.52459975     1.01700
C639        C  0.93074155  0.95604510  0.47859230     1.01100
C640        C  0.94360820  0.83102291  0.51989418     1.03100
C641        C  0.05420807  0.97659748  0.56231880     1.02000
C642        C  0.03962554  0.10099935  0.52248485     1.00900
C643        C  0.06691238  0.03820101  0.48356263     1.00900
C644        C  0.07963642  0.91832721  0.52726688     1.03500
H645        H  0.06677303  0.04826875  0.51170819     0.30900
O646        O  0.04540061  0.02428709  0.51425696    -1.04300
H647        H  0.00890035  0.89628914  0.51170635     0.33000
O648        O  0.00372017  0.91624573  0.51419116    -1.06900
C649        C  0.99126371  0.11026449  0.93146821     0.19400
C650        C  0.01905955  0.12269558  0.94144463    -0.18700
C651        C  0.01222717  0.10190234  0.95276610    -0.11000
C652        C  0.97751814  0.06773163  0.95428276     0.21600
C653        C  0.94924802  0.05554356  0.94445712    -0.20400
C654        C  0.95608878  0.07641104  0.93308455    -0.11200
C655        C  0.97020469  0.04466158  0.96606989    -0.15400
C656        C  0.99891499  0.04446801  0.97275013    -0.29200
C657        C  0.00060619  0.13316057  0.91950570    -0.03500
C658        C  0.97366196  0.13214616  0.91146846    -0.40000
H659        H  0.04616663  0.14879888  0.94051302     0.12800
H660        H  0.03409694  0.11294445  0.96035875     0.12400
H661        H  0.92219917  0.02940518  0.94545563     0.11800
H662        H  0.93414655  0.06539400  0.92552509     0.12100
H663        H  0.94058296  0.02651172  0.96902390     0.14800
H664        H  0.02823840  0.06033394  0.96925423     0.13600
H665        H  0.03069484  0.15329419  0.91779076     0.11300
H666        H  0.94352533  0.11455733  0.91387021     0.13300
C667        C  0.82819637  0.22383483  0.86308988     0.19400
C668        C  0.82348250  0.19211882  0.86975232    -0.18700
C669        C  0.85453148  0.18634852  0.87167784    -0.11000
C670        C  0.89128143  0.21255974  0.86712313     0.21600
C671        C  0.89592926  0.24368121  0.86010177    -0.20400
C672        C  0.86480491  0.24956723  0.85819709    -0.11200
C673        C  0.92509541  0.20817062  0.86984382    -0.15400
C674        C  0.92854333  0.19425090  0.88125245    -0.29200
C675        C  0.79457634  0.22960334  0.86204838    -0.03500
C676        C  0.79188245  0.25281582  0.85349876    -0.40000
H677        H  0.79564163  0.17175876  0.87355439     0.12800
H678        H  0.84968597  0.16133456  0.87675387     0.12400
H679        H  0.92397196  0.26413586  0.85647244     0.11800
H680        H  0.86999705  0.27481576  0.85324702     0.12100
H681        H  0.94737872  0.21739868  0.86253560     0.14800
H682        H  0.90614631  0.18676025  0.88846942     0.13600
H683        H  0.77062562  0.21342895  0.86853349     0.11300
H684        H  0.81452568  0.26800556  0.84650338     0.13300
C685        C  0.30518509  0.44685794  0.77498708     0.19400
C686        C  0.32867440  0.48634166  0.77514693    -0.18700
C687        C  0.32309458  0.50835255  0.76602274    -0.11000
C688        C  0.29413150  0.49123524  0.75634903     0.21600
C689        C  0.27038986  0.45180997  0.75626214    -0.20400
C690        C  0.27600345  0.42979050  0.76536998    -0.11200
C691        C  0.28898120  0.51326115  0.74586315    -0.15400
C692        C  0.31857941  0.54524577  0.74127695    -0.29200
C693        C  0.31175867  0.42457388  0.78504316    -0.03500
C694        C  0.28356094  0.39090584  0.78914617    -0.40000
H695        H  0.35119637  0.50028048  0.78246546     0.12800
H696        H  0.34139451  0.53873179  0.76663916     0.12400
H697        H  0.24805744  0.43786989  0.74888023     0.11800
H698        H  0.25788539  0.39941638  0.76464519     0.12100
H699        H  0.26143987  0.50057018  0.74076093     0.14800
H700        H  0.34695512  0.55635453  0.74563126     0.13600
H701        H  0.33952559  0.43778794  0.78998990     0.11300
H702        H  0.25490373  0.37947779  0.78499757     0.13300
C703        C  0.47223157  0.33597780  0.83784769     0.19400
C704        C  0.46512487  0.34317499  0.82506278    -0.18700
C705        C  0.43199391  0.34479020  0.82195031    -0.11000
C706        C  0.40501151  0.33973215  0.83163496     0.21600
C707        C  0.41217282  0.33267833  0.84445539    -0.20400
C708        C  0.44531117  0.33089107  0.84755979    -0.11200
C709        C  0.36859695  0.34022989  0.82880577    -0.15400
C710        C  0.36080551  0.35215775  0.81753694    -0.29200
C711        C  0.50807499  0.33423185  0.84040351    -0.03500
C712        C  0.51507171  0.31947956  0.85109967    -0.40000
H713        H  0.48515467  0.34709034  0.81733881     0.12800
H714        H  0.42765626  0.34938648  0.81188818     0.12400
H715        H  0.39198738  0.32853808  0.85214874     0.11800
H716        H  0.44971160  0.32586820  0.85757539     0.12100
H717        H  0.34773842  0.33095318  0.83659634     0.14800
H718        H  0.38266060  0.36401101  0.81009362     0.13600
H719        H  0.52911165  0.34395776  0.83262473     0.11300
H720        H  0.49401428  0.30801467  0.85881833     0.13300
C721        C  0.17791936  0.27279355  0.84427884     0.19400
C722        C  0.17597087  0.27958796  0.85765919    -0.18700
C723        C  0.14049767  0.26288041  0.86401406    -0.11000
C724        C  0.10631644  0.23869419  0.85709559     0.21600
C725        C  0.10837459  0.23137147  0.84378739    -0.20400
C726        C  0.14379593  0.24781120  0.83746854    -0.11200
C727        C  0.06802921  0.22188228  0.86334140    -0.15400
C728        C  0.06243798  0.21174363  0.87594379    -0.29200
C729        C  0.21558690  0.29292943  0.83757053    -0.03500
C730        C  0.21817060  0.30326394  0.82502933    -0.40000
H731        H  0.20181369  0.29874365  0.86311303     0.12800
H732        H  0.13978040  0.26976904  0.87422545     0.12400
H733        H  0.08247238  0.21269835  0.83827479     0.11800
H734        H  0.14432863  0.24091843  0.82724860     0.12100
H735        H  0.04357550  0.21593125  0.85716229     0.14800
H736        H  0.08644210  0.21426602  0.88166041     0.13600
H737        H  0.24154337  0.30227831  0.84337151     0.11300
H738        H  0.19199247  0.29690854  0.81980882     0.13300
C739        C  0.19176990  0.59550626  0.11817958     0.19400
C740        C  0.20272928  0.62702180  0.11031623    -0.18700
C741        C  0.18122046  0.62445668  0.09922661    -0.11000
C742        C  0.14773518  0.59028990  0.09587868     0.21600
C743        C  0.13693153  0.55869226  0.10369880    -0.20400
C744        C  0.15851848  0.56124001  0.11478380    -0.11200
C745        C  0.12374390  0.58625508  0.08423100    -0.15400
C746        C  0.12310686  0.61561854  0.07867647    -0.29200
C747        C  0.21510293  0.60013917  0.13003045    -0.03500
C748        C  0.21545810  0.57143952  0.13620136    -0.40000
H749        H  0.22827368  0.65372975  0.11270872     0.12800
H750        H  0.19131258  0.64916570  0.09325760     0.12400
H751        H  0.11131386  0.53203528  0.10133185     0.11800
H752        H  0.14853439  0.53656491  0.12076299     0.12100
H753        H  0.10441526  0.55774925  0.08063280     0.14800
H754        H  0.13978220  0.64362719  0.08306930     0.13600
H755        H  0.23368409  0.62889866  0.13362316     0.11300
H756        H  0.19844292  0.54262150  0.13251687     0.13300
C757        C  0.04003670  0.71019398  0.03980033     0.19400
C758        C  0.03839514  0.72208256  0.02714202    -0.18700
C759        C  0.03286052  0.75287118  0.02519982    -0.11000
C760        C  0.02838151  0.77224049  0.03593282     0.21600
C761        C  0.02980221  0.76020942  0.04858332    -0.20400
C762        C  0.03526320  0.72942895  0.05052175    -0.11200
C763        C  0.02323291  0.80562209  0.03447224    -0.15400
C764        C  0.01092151  0.81401896  0.02343772    -0.29200
C765        C  0.04588064  0.67722486  0.04139679    -0.03500
C766        C  0.06032364  0.67111445  0.05240044    -0.40000
H767        H  0.04190529  0.70777006  0.01870777     0.12800
H768        H  0.03283008  0.76168457  0.01530577     0.12400
H769        H  0.02630662  0.77449780  0.05703131     0.11800
H770        H  0.03505276  0.72055750  0.06042532     0.12100
H771        H  0.02821845  0.82325565  0.04314717     0.14800
H772        H  0.00295582  0.79551098  0.01489310     0.13600
H773        H  0.03972027  0.65868703  0.03294930     0.11300
H774        H  0.06933963  0.69174056  0.06035411     0.13300
C775        C  0.91432482  0.12170541  0.01469232     0.19400
C776        C  0.88129716  0.11861212  0.00875954    -0.18700
C777        C  0.87872282  0.15087610  0.00630066    -0.11000
C778        C  0.90948844  0.18705962  0.00960350     0.21600
C779        C  0.94196846  0.19004443  0.01587499    -0.20400
C780        C  0.94460794  0.15787107  0.01829071    -0.11200
C781        C  0.90939489  0.22237929  0.00640618    -0.15400
C782        C  0.89027715  0.22499534  0.99602519    -0.29200
C783        C  0.91741881  0.08711752  0.01605060    -0.03500
C784        C  0.94222248  0.08473019  0.02430644    -0.40000
H785        H  0.85754586  0.09113723  0.00589471     0.12800
H786        H  0.85270783  0.14733514  0.00180004     0.12400
H787        H  0.96605358  0.21755067  0.01850811     0.11800
H788        H  0.97105031  0.16179057  0.02252591     0.12100
H789        H  0.92863611  0.24755856  0.01205488     0.14800
H790        H  0.87372561  0.20012021  0.98984239     0.13600
H791        H  0.89891450  0.06288492  0.00982790     0.11300
H792        H  0.95936015  0.10774414  0.03112952     0.13300
C793        C  0.78744752  0.29651386  0.92095072     0.19400
C794        C  0.81258583  0.28224365  0.92212316    -0.18700
C795        C  0.83365007  0.28792919  0.93365973    -0.11000
C796        C  0.82915884  0.30718606  0.94445619     0.21600
C797        C  0.80359045  0.32105964  0.94329524    -0.20400
C798        C  0.78289635  0.31576733  0.93169053    -0.11200
C799        C  0.85037401  0.31331731  0.95705140    -0.15400
C800        C  0.86523336  0.29177331  0.96083253    -0.29200
C801        C  0.76557060  0.29000063  0.90856155    -0.03500
C802        C  0.75682567  0.31532471  0.90380354    -0.40000
H803        H  0.81647531  0.26723848  0.91398493     0.12800
H804        H  0.85371099  0.27761063  0.93393844     0.12400
H805        H  0.79928735  0.33571644  0.95145467     0.11800
H806        H  0.76287527  0.32616973  0.93121895     0.12100
H807        H  0.85101704  0.33434941  0.96382037     0.14800
H808        H  0.86159656  0.26858915  0.95454176     0.13600
H809        H  0.75782509  0.26431378  0.90295855     0.11300
H810        H  0.76696704  0.34222394  0.90890361     0.13300
C811        C  0.96650364  0.42921255  0.00831089     0.19400
C812        C  0.00528407  0.45747419  0.00755397    -0.18700
C813        C  0.02013396  0.48945861  0.01579473    -0.11000
C814        C  0.99611048  0.49409054  0.02471678     0.21600
C815        C  0.95712059  0.46631217  0.02521504    -0.20400
C816        C  0.94250590  0.43391567  0.01721051    -0.11200
C817        C  0.01071643  0.52812623  0.03331391    -0.15400
C818        C  0.04580196  0.54450138  0.03894246    -0.29200
C819        C  0.95123798  0.39569593  0.99942703    -0.03500
C820        C  0.92575494  0.36081204  0.00342439    -0.40000
H821        H  0.02416387  0.45459537  0.00066099     0.12800
H822        H  0.05014870  0.51088381  0.01499846     0.12400
H823        H  0.93802859  0.46953749  0.03191094     0.11800
H824        H  0.91227616  0.41293394  0.01778297     0.12100
H825        H  0.99112586  0.53831801  0.03577685     0.14800
H826        H  0.06365742  0.53169094  0.03757165     0.13600
H827        H  0.96278900  0.39942775  0.98962027    -0.04900
H828        H  0.91740130  0.35650022  0.01362270     0.13300
C829        C  0.14820758  0.66621036  0.17402033     0.19400
C830        C  0.14901237  0.69480869  0.16638197    -0.18700
C831        C  0.11524091  0.69565397  0.16370300    -0.11000
C832        C  0.07961220  0.66752431  0.16848210     0.21600
C833        C  0.07893114  0.63980046  0.17656403    -0.20400
C834        C  0.11272324  0.63887107  0.17922180    -0.11200
C835        C  0.04287476  0.66636549  0.16511932    -0.15400
C836        C  0.03695930  0.67741413  0.15341168    -0.29200
C837        C  0.18411637  0.66404744  0.17542827    -0.03500
C838        C  0.19034960  0.64597895  0.18519411    -0.40000
H839        H  0.17586977  0.71637982  0.16233204     0.12800
H840        H  0.11711295  0.71831348  0.15785062     0.12400
H841        H  0.05192903  0.61796783  0.18044419     0.11800
H842        H  0.11053856  0.61584504  0.18491732     0.12100
H843        H  0.02022989  0.65520707  0.17232298     0.14800
H844        H  0.05994062  0.68754451  0.14631060     0.13600
H845        H  0.20589137  0.67729764  0.16797263     0.11300
H846        H  0.16961852  0.63410980  0.19300648     0.13300
C847        C  0.96196231  0.76776628  0.10909504     0.19400
C848        C  0.94228739  0.78814681  0.10885166    -0.18700
C849        C  0.94718558  0.81221782  0.09854501    -0.11000
C850        C  0.97192110  0.81638421  0.08818387     0.21600
C851        C  0.99177849  0.79632232  0.08843062    -0.20400
C852        C  0.98664198  0.77201131  0.09865302    -0.11200
C853        C  0.97840063  0.84182728  0.07709691    -0.15400
C854        C  0.95195574  0.85033021  0.07286135    -0.29200
C855        C  0.95545432  0.74225414  0.12029863    -0.03500
C856        C  0.97752282  0.72677717  0.12290998    -0.40000
H857        H  0.92317998  0.78563256  0.11672602     0.12800
H858        H  0.93210418  0.82795640  0.09885942     0.12400
H859        H  0.01096135  0.79902636  0.08055265     0.11800
H860        H  0.00179776  0.75643854  0.09811715     0.12100
H861        H  0.00515442  0.85222297  0.07178589     0.14800
H862        H  0.92410539  0.83817954  0.07753151     0.13600
H863        H  0.93249279  0.73747497  0.12695314     0.11300
H864        H  0.00227520  0.73368990  0.11689364     0.13300
C865        C  0.68315225  0.44993661  0.26804839     0.19400
C866        C  0.71249521  0.46072633  0.27742726    -0.18700
C867        C  0.70581448  0.44045519  0.28894786    -0.11000
C868        C  0.66963079  0.40847717  0.29122993     0.21600
C869        C  0.64043432  0.39755018  0.28179883    -0.20400
C870        C  0.64713377  0.41772067  0.27028961    -0.11200
C871        C  0.66090069  0.38585949  0.30327592    -0.15400
C872        C  0.68794448  0.38510190  0.31083534    -0.29200
C873        C  0.69099263  0.47276746  0.25606983    -0.03500
C874        C  0.66296489  0.47449928  0.24941245    -0.40000
H875        H  0.74049935  0.48536026  0.27594491     0.12800
H876        H  0.72885893  0.45042627  0.29608574     0.12400
H877        H  0.61238196  0.37295438  0.28326460     0.11800
H878        H  0.62411438  0.40758566  0.26313058     0.12100
H879        H  0.63075978  0.36745373  0.30558777     0.14800
H880        H  0.71809740  0.40167520  0.30833129     0.13600
H881        H  0.72077385  0.49019963  0.25324991     0.11300
H882        H  0.63385034  0.45936127  0.25311161     0.13300
C883        C  0.56825018  0.54727518  0.20631069     0.19400
C884        C  0.55267709  0.54196862  0.19365939    -0.18700
C885        C  0.51994667  0.54500612  0.19128712    -0.11000
C886        C  0.50235964  0.55401827  0.20154856     0.21600
C887        C  0.51852460  0.56012459  0.21414477    -0.20400
C888        C  0.55112453  0.55700752  0.21650830    -0.11200
C889        C  0.46687610  0.55662170  0.19972886    -0.15400
C890        C  0.45344809  0.56035217  0.18809924    -0.29200
C891        C  0.60236483  0.54268279  0.20856730    -0.03500
C892        C  0.60892355  0.53124214  0.22006908    -0.40000
H893        H  0.56539964  0.53462810  0.18562303     0.12800
H894        H  0.50826149  0.53948977  0.18147027     0.12400
H895        H  0.50591335  0.56746101  0.22222286     0.11800
H896        H  0.56299985  0.56263358  0.22631508     0.12100
H897        H  0.45212602  0.55746437  0.20852384     0.14800
H898        H  0.46897996  0.56249652  0.17920168     0.13600
H899        H  0.62091414  0.54659108  0.20033509     0.11300
H900        H  0.58794365  0.52413856  0.22777010     0.13300
C901        C  0.78399346  0.57756747  0.19193376     0.19400
C902        C  0.78331635  0.57440946  0.17823433    -0.18700
C903        C  0.81760001  0.58990524  0.17113876    -0.11000
C904        C  0.85347919  0.60946355  0.17762453     0.21600
C905        C  0.85407804  0.61220657  0.19132110    -0.20400
C906        C  0.81988607  0.59678866  0.19839654    -0.11200
C907        C  0.89094654  0.62747548  0.17062756    -0.15400
C908        C  0.89521090  0.63809338  0.15804237    -0.29200
C909        C  0.74689327  0.56159024  0.19910788    -0.03500
C910        C  0.74312621  0.55123975  0.21171493    -0.40000
H911        H  0.75611236  0.55968363  0.17299888     0.12800
H912        H  0.81575598  0.58618128  0.16063145     0.12400
H913        H  0.88122149  0.62708171  0.19658692     0.11800
H914        H  0.82184603  0.60084771  0.20889125     0.12100
H915        H  0.91640002  0.63490170  0.17646567     0.14800
H916        H  0.87022239  0.63368718  0.15249387     0.13600
H917        H  0.72165098  0.55660608  0.19358670     0.11300
H918        H  0.76771635  0.55305727  0.21681133     0.13300
C919        C  0.34273823  0.73740164  0.61605546     0.19400
C920        C  0.36492600  0.77692005  0.61544183    -0.18700
C921        C  0.35928550  0.79626362  0.60529251    -0.11000
C922        C  0.33151821  0.77624256  0.59547346     0.21600
C923        C  0.31049324  0.73666363  0.59582453    -0.20400
C924        C  0.31620419  0.71737474  0.60592423    -0.11200
C925        C  0.32193934  0.79548206  0.58518062    -0.15400
C926        C  0.34707554  0.82982102  0.58064203    -0.29200
C927        C  0.34670120  0.71801994  0.62761505    -0.03500
C928        C  0.31671897  0.68655418  0.63233059    -0.40000
H929        H  0.38561770  0.79296030  0.62310913     0.12800
H930        H  0.37560636  0.82682696  0.60545915     0.12400
H931        H  0.28925305  0.72059157  0.58830400     0.11800
H932        H  0.29954372  0.68682039  0.60582469     0.12100
H933        H  0.29348820  0.77983262  0.58073506     0.14800
H934        H  0.37671329  0.84407501  0.58408899     0.13600
H935        H  0.37360547  0.73191807  0.63310930     0.11300
H936        H  0.28880551  0.67443613  0.62752401     0.13300
C937        C  0.14549641  0.88884921  0.54438292     0.19400
C938        C  0.14236003  0.85805056  0.55131703    -0.18700
C939        C  0.17540110  0.85620443  0.55455782    -0.11000
C940        C  0.21210901  0.88569583  0.55110988     0.21600
C941        C  0.21495151  0.91693955  0.54463002    -0.20400
C942        C  0.18223510  0.91857133  0.54132207    -0.11200
C943        C  0.24864447  0.88602710  0.55378964    -0.15400
C944        C  0.25221029  0.85672607  0.55785384    -0.29200
C945        C  0.11073952  0.89094847  0.54085186    -0.03500
C946        C  0.10936369  0.90808106  0.52988985    -0.40000
H947        H  0.11433938  0.83520637  0.55404158     0.12800
H948        H  0.17197997  0.83192314  0.55975575     0.12400
H949        H  0.24277710  0.94029942  0.54199277     0.11800
H950        H  0.18589413  0.94352391  0.53650688     0.12100
H951        H  0.27480250  0.91242436  0.55183880     0.14800
H952        H  0.22725441  0.83040297  0.56064979     0.13600
H953        H  0.08678019  0.87961988  0.54758491     0.11300
H954        H  0.13274065  0.91774545  0.52295351     0.13300
C955        C  0.62581848  0.11800956  0.45237817     0.19400
C956        C  0.59339851  0.11720325  0.44683853    -0.18700
C957        C  0.59598808  0.13459558  0.43490246    -0.11000
C958        C  0.63124440  0.15299440  0.42823163     0.21600
C959        C  0.66317616  0.15266380  0.43361488    -0.20400
C960        C  0.66054627  0.13524832  0.44545195    -0.11200
C961        C  0.63683441  0.17294748  0.41570263    -0.15400
C962        C  0.61041506  0.17878674  0.40976887    -0.29200
C963        C  0.62245398  0.10030562  0.46525815    -0.03500
C964        C  0.65301780  0.10999826  0.47315848    -0.40000
H965        H  0.56610326  0.10351415  0.45185043     0.12800
H966        H  0.57034212  0.13340835  0.43106450     0.12400
H967        H  0.69052852  0.16606631  0.42863449     0.11800
H968        H  0.68582476  0.13508495  0.44898042     0.12100
H969        H  0.66493364  0.18424384  0.41123471     0.14800
H970        H  0.58204839  0.16820419  0.41386008     0.13600
H971        H  0.59392102  0.07911332  0.46832830     0.11300
H972        H  0.68148749  0.13137033  0.47015194     0.13300
C973        C  0.81922765  0.03227804  0.51245227     0.19400
C974        C  0.79320682  0.03288201  0.52144213    -0.18700
C975        C  0.76713726  0.04433901  0.51767419    -0.11000
C976        C  0.76644087  0.05533211  0.50473590     0.21600
C977        C  0.79208942  0.05411120  0.49571336    -0.20400
C978        C  0.81812086  0.04270562  0.49948337    -0.11200
C979        C  0.73772847  0.06540304  0.49995768    -0.15400
C980        C  0.71634498  0.07413194  0.50783187    -0.29200
C981        C  0.84595719  0.01906653  0.51667452    -0.03500
C982        C  0.87986400  0.03037979  0.51082008    -0.40000
H983        H  0.79296043  0.02432704  0.53141604     0.12800
H984        H  0.74706646  0.04341314  0.52488163     0.12400
H985        H  0.79167180  0.06156879  0.48563190     0.11800
H986        H  0.83655080  0.04114440  0.49209656     0.12100
H987        H  0.73288019  0.06387621  0.48947032     0.14800
H988        H  0.72039513  0.07546827  0.51833114     0.13600
H989        H  0.83767127  0.99992113  0.52482456     0.11300
H990        H  0.88899099  0.05096031  0.50311328     0.13300
C991        C  0.45286772  0.96212694  0.53567458     0.19400
C992        C  0.48519825  0.99480804  0.54059458    -0.18700
C993        C  0.51511342  0.01815270  0.53233112    -0.11000
C994        C  0.51360883  0.00879467  0.51897231     0.21600
C995        C  0.48048808  0.97708721  0.51392808    -0.20400
C996        C  0.45043713  0.95379370  0.52219304    -0.11200
C997        C  0.54683282  0.03022673  0.51023748    -0.15400
C998        C  0.58334899  0.04696509  0.51469559    -0.29200
C999        C  0.42345758  0.93636247  0.54498189    -0.03500
C1000       C  0.38638115  0.91338057  0.54163331    -0.40000
H1001       H  0.48751070  0.00207173  0.55090847     0.12800
H1002       H  0.53956187  0.04318442  0.53647508     0.12400
H1003       H  0.47858341  0.96939446  0.50366495     0.11800
H1004       H  0.42621655  0.92852686  0.51807610     0.12100
H1005       H  0.54121386  0.02841549  0.49980039     0.14800
H1006       H  0.58861378  0.04523231  0.52499458     0.13600
H1007       H  0.43237919  0.93769483  0.55508833     0.11300
H1008       H  0.37649514  0.91480790  0.53189797     0.13300
C1009       C  0.25606324  0.78763606  0.67526662     0.19400
C1010       C  0.26157845  0.81867094  0.68300983    -0.18700
C1011       C  0.25287425  0.84537601  0.67808673    -0.11000
C1012       C  0.23900164  0.84179837  0.66518729     0.21600
C1013       C  0.23326525  0.81060613  0.65752804    -0.20400
C1014       C  0.24194894  0.78405327  0.66242472    -0.11200
C1015       C  0.22993213  0.86947314  0.65922696    -0.15400
C1016       C  0.24507219  0.90566856  0.66339158    -0.29200
C1017       C  0.26722427  0.76062910  0.68048844    -0.03500
C1018       C  0.25161782  0.72477520  0.67596054    -0.40000
H1019       H  0.27251257  0.82216938  0.69291476     0.12800
H1020       H  0.25674943  0.86840416  0.68445866     0.12400
H1021       H  0.22274941  0.80715242  0.64756458     0.11800
H1022       H  0.23855521  0.76140856  0.65594177     0.12100
H1023       H  0.21165830  0.85961501  0.65061750     0.14800
H1024       H  0.26467602  0.91538778  0.67170132     0.13600
H1025       H  0.28933985  0.77078967  0.68805516     0.11300
H1026       H  0.22841281  0.71402970  0.66880167     0.13300
C1027       C  0.09486875  0.95375367  0.59287122     0.19400
C1028       C  0.10388102  0.92540060  0.59542884    -0.18700
C1029       C  0.12581265  0.92793296  0.60642727    -0.11000
C1030       C  0.13899101  0.95894726  0.61517372     0.21600
C1031       C  0.12876992  0.98657331  0.61284535    -0.20400
C1032       C  0.10699856  0.98410792  0.60184122    -0.11200
C1033       C  0.16327874  0.96402765  0.62684352    -0.15400
C1034       C  0.18296972  0.94574645  0.62883130    -0.29200
C1035       C  0.07273357  0.95047994  0.58080030    -0.03500
C1036       C  0.07379420  0.98026451  0.57493855    -0.40000
H1037       H  0.09437347  0.90141998  0.58877486     0.12800
H1038       H  0.13201935  0.90544419  0.60800652     0.12400
H1039       H  0.13804259  0.01049174  0.61951557     0.11800
H1040       H  0.09955033  0.00586568  0.60050395     0.12100
H1041       H  0.16594155  0.98505615  0.63403500     0.14800
H1042       H  0.18002538  0.92366940  0.62210868     0.13600
H1043       H  0.05687785  0.92271942  0.57612170     0.11300
H1044       H  0.09098343  0.00852397  0.57908481     0.13300
C1045       C  0.41246012  0.47466592  0.70594614     0.19400
C1046       C  0.39002764  0.43930684  0.69963592    -0.18700
C1047       C  0.39745488  0.40982981  0.70160552    -0.11000
C1048       C  0.42704426  0.41460754  0.71017180     0.21600
C1049       C  0.44966822  0.45005289  0.71636807    -0.20400
C1050       C  0.44223278  0.47963426  0.71437299    -0.11200
C1051       C  0.43469531  0.38338210  0.71320381    -0.15400
C1052       C  0.40935772  0.34639044  0.71085096    -0.29200
C1053       C  0.40407612  0.50596940  0.70434948    -0.03500
C1054       C  0.38695523  0.50900880  0.69352633    -0.40000
H1055       H  0.36597602  0.43379983  0.69338923     0.12800
H1056       H  0.37972905  0.38351923  0.69636413     0.12400
H1057       H  0.47273765  0.45467391  0.72299022     0.11800
H1058       H  0.45974273  0.50644469  0.71943319     0.12100
H1059       H  0.46177395  0.39143477  0.71807744     0.14800
H1060       H  0.38250827  0.33811798  0.70580876     0.13600
H1061       H  0.41135852  0.52633264  0.71233862     0.11300
H1062       H  0.38086484  0.48948190  0.68536198     0.13300
C1063       C  0.48772015  0.27244431  0.76136859     0.19400
C1064       C  0.47430069  0.24376369  0.77062627    -0.18700
C1065       C  0.49592476  0.24781262  0.78181287    -0.11000
C1066       C  0.53174760  0.28061666  0.78389858     0.21600
C1067       C  0.54542395  0.30922168  0.77463345    -0.20400
C1068       C  0.52387832  0.30509803  0.76338773    -0.11200
C1069       C  0.55483201  0.28641770  0.79583958    -0.15400
C1070       C  0.55342582  0.25771196  0.80250196    -0.29200
C1071       C  0.46308198  0.26671928  0.74978065    -0.03500
C1072       C  0.46734228  0.29471562  0.74196159    -0.40000
H1073       H  0.44662767  0.21830886  0.76930676     0.12800
H1074       H  0.48402456  0.22562106  0.78892838     0.12400
H1075       H  0.57303264  0.33470019  0.77605316     0.11800
H1076       H  0.53595603  0.32740408  0.75633760     0.12100
H1077       H  0.57457137  0.31538902  0.79898026     0.14800
H1078       H  0.53581348  0.22876286  0.79898320     0.13600
H1079       H  0.43910542  0.23836368  0.74814983     0.11300
H1080       H  0.48913342  0.32365960  0.74424700     0.13300
C1081       C  0.30084643  0.08826751  0.67953347     0.19400
C1082       C  0.29605731  0.09449148  0.69273767    -0.18700
C1083       C  0.31446177  0.13106365  0.69813931    -0.11000
C1084       C  0.33855700  0.16226248  0.69044585     0.21600
C1085       C  0.34282959  0.15612617  0.67718997    -0.20400
C1086       C  0.32445988  0.11953838  0.67178698    -0.11200
C1087       C  0.35974990  0.20142402  0.69593707    -0.15400
C1088       C  0.37110240  0.20893567  0.70852066    -0.29200
C1089       C  0.28183162  0.04879534  0.67433427    -0.03500
C1090       C  0.27340188  0.03981139  0.66159961    -0.40000
H1091       H  0.27787590  0.07094967  0.69889491     0.12800
H1092       H  0.30947886  0.13474722  0.70830102     0.12400
H1093       H  0.36121488  0.17965839  0.67106260     0.11800
H1094       H  0.32970643  0.11593717  0.66165109     0.12100
H1095       H  0.36883908  0.22461691  0.68922799     0.14800
H1096       H  0.36533861  0.18574125  0.71489283     0.13600
H1097       H  0.27271602  0.02630938  0.68134635     0.11300
H1098       H  0.27889302  0.06185407  0.65472836     0.13300
C1099       C  0.71957858  0.11189132  0.36820677     0.19400
C1100       C  0.74510231  0.11300895  0.37782877    -0.18700
C1101       C  0.75336064  0.08369808  0.37878658    -0.11000
C1102       C  0.73614823  0.05246848  0.37008905     0.21600
C1103       C  0.71044562  0.05118097  0.36053957    -0.20400
C1104       C  0.70223737  0.08048477  0.35956219    -0.11200
C1105       C  0.74251012  0.01978035  0.37101021    -0.15400
C1106       C  0.77367847  0.02150742  0.37665327    -0.29200
C1107       C  0.71043522  0.14299489  0.36803621    -0.03500
C1108       C  0.69233294  0.14912414  0.35809316    -0.40000
H1109       H  0.75842490  0.13651298  0.38474783     0.12800
H1110       H  0.77233093  0.08524626  0.38657014     0.12400
H1111       H  0.69639952  0.02719464  0.35383794     0.11800
H1112       H  0.68155797  0.07766062  0.35223507     0.12100
H1113       H  0.72031716  0.99315754  0.36679965     0.14800
H1114       H  0.79581653  0.04783089  0.38104225     0.13600
H1115       H  0.71899482  0.16168950  0.37657600     0.11300
H1116       H  0.68434906  0.13168835  0.34928361     0.13300
C1117       C  0.84947570  0.96672165  0.42410969     0.19400
C1118       C  0.83358376  0.95880387  0.43664741    -0.18700
C1119       C  0.85620456  0.96189210  0.44749872    -0.11000
C1120       C  0.89548647  0.97413579  0.44605100     0.21600
C1121       C  0.91167280  0.98286660  0.43356401    -0.20400
C1122       C  0.88872199  0.97861877  0.42262814    -0.11200
C1123       C  0.91987376  0.97905681  0.45761399    -0.15400
C1124       C  0.90897242  0.95166365  0.46643790    -0.29200
C1125       C  0.82534375  0.96548435  0.41294104    -0.03500
C1126       C  0.82753677  0.95309396  0.40087900    -0.40000
H1127       H  0.80357313  0.95020078  0.43803601     0.12800
H1128       H  0.84327697  0.95567038  0.45708155     0.12400
H1129       H  0.94199834  0.99272638  0.43227899     0.11800
H1130       H  0.90188737  0.98581083  0.41309800     0.12100
H1131       H  0.94743268  0.00494870  0.45868397     0.14800
H1132       H  0.88293554  0.92469958  0.46463876     0.13600
H1133       H  0.80413408  0.97404762  0.41483465     0.11300
H1134       H  0.84573756  0.94080592  0.39920187     0.13300
C1135       C  0.59286521  0.45172670  0.34552381     0.19400
C1136       C  0.57076358  0.45145577  0.33484980    -0.18700
C1137       C  0.57030631  0.48411796  0.33141544    -0.11000
C1138       C  0.59223306  0.51799911  0.33856725     0.21600
C1139       C  0.61324150  0.51809232  0.34951628    -0.20400
C1140       C  0.61386413  0.48543390  0.35293546    -0.11200
C1141       C  0.59348671  0.55352830  0.33492720    -0.15400
C1142       C  0.58972368  0.56140512  0.32247495    -0.29200
C1143       C  0.59488311  0.41696414  0.34790590    -0.03500
C1144       C  0.61343573  0.41236154  0.35804950    -0.40000
H1145       H  0.55410492  0.42592991  0.32901116     0.12800
H1146       H  0.55259053  0.48261048  0.32320421     0.12400
H1147       H  0.63007457  0.54381773  0.35524018     0.11800
H1148       H  0.63158801  0.48736549  0.36117096     0.12100
H1149       H  0.59849470  0.57376569  0.34273602     0.14800
H1150       H  0.58518093  0.54093410  0.31478556     0.13600
H1151       H  0.58168164  0.39453030  0.34053332     0.11300
H1152       H  0.62628171  0.43358787  0.36576446     0.13300
C1153       C  0.45801823  0.61788586  0.25352690     0.19400
C1154       C  0.47251037  0.59393897  0.25636785    -0.18700
C1155       C  0.49675229  0.60127188  0.26714711    -0.11000
C1156       C  0.50719591  0.63299805  0.27540898     0.21600
C1157       C  0.49186716  0.65644755  0.27272002    -0.20400
C1158       C  0.46754153  0.64904644  0.26192272    -0.11200
C1159       C  0.53201519  0.64136717  0.28727907    -0.15400
C1160       C  0.55328760  0.62496961  0.28958279    -0.29200
C1161       C  0.43237243  0.60882878  0.24193571    -0.03500
C1162       C  0.42841156  0.63511865  0.23552047    -0.40000
H1163       H  0.46510610  0.56941698  0.25018504     0.12800
H1164       H  0.50631007  0.58134079  0.26899754     0.12400
H1165       H  0.49858646  0.68052763  0.27904349     0.11800
H1166       H  0.45576690  0.66738940  0.26035850     0.12100
H1167       H  0.53160820  0.66072405  0.29459038     0.14800
H1168       H  0.55400831  0.60551920  0.28243302     0.13600
H1169       H  0.41768887  0.57985383  0.23821507     0.11300
H1170       H  0.44452574  0.66450723  0.23871593     0.13300
C1171       C  0.70811460  0.82717264  0.35344823     0.19400
C1172       C  0.67982515  0.79237971  0.35828362    -0.18700
C1173       C  0.65761021  0.76189008  0.34981082    -0.11000
C1174       C  0.66377036  0.76516949  0.33622899     0.21600
C1175       C  0.69156736  0.80021592  0.33135142    -0.20400
C1176       C  0.71366748  0.83087904  0.33984624    -0.11200
C1177       C  0.64223516  0.73251298  0.32698163    -0.15400
C1178       C  0.62735912  0.69647559  0.33074965    -0.29200
C1179       C  0.73131272  0.85855250  0.36293541    -0.03500
C1180       C  0.74795644  0.89528705  0.35989786    -0.40000
H1181       H  0.67463184  0.78883831  0.36868622     0.12800
H1182       H  0.63550408  0.73595723  0.35399407     0.12400
H1183       H  0.69684263  0.80363619  0.32095231     0.11800
H1184       H  0.73561615  0.85702690  0.33572797     0.12100
H1185       H  0.64132494  0.73841733  0.31673065     0.14800
H1186       H  0.63164765  0.69115574  0.34078121     0.13600
H1187       H  0.73205959  0.85115030  0.37303295     0.11300
H1188       H  0.74410246  0.90298159  0.35014998     0.13300
C1189       C  0.86866042  0.96149606  0.09435192     0.19400
C1190       C  0.83268012  0.93219110  0.09832719    -0.18700
C1191       C  0.81475146  0.93655983  0.10937732    -0.11000
C1192       C  0.83270700  0.97037898  0.11678409     0.21600
C1193       C  0.86881910  0.99960762  0.11289515    -0.20400
C1194       C  0.88684389  0.99519244  0.10187147    -0.11200
C1195       C  0.81439321  0.97679409  0.12837138    -0.15400
C1196       C  0.78893662  0.94892793  0.13603521    -0.29200
C1197       C  0.88593649  0.95536479  0.08238128    -0.03500
C1198       C  0.91431778  0.98323565  0.07552247    -0.40000
H1199       H  0.81803224  0.90594812  0.09272337     0.12800
H1200       H  0.78652333  0.91376061  0.11187086     0.12400
H1201       H  0.88330977  0.02588991  0.11848707     0.11800
H1202       H  0.91502102  0.01810002  0.09941791     0.12100
H1203       H  0.82330057  0.00599409  0.13075997     0.14800
H1204       H  0.77970955  0.91969897  0.13353411     0.13600
H1205       H  0.87356661  0.92638995  0.07878890     0.11300
H1206       H  0.92668867  0.01252805  0.07865176     0.13300
C1207       C  0.62923883  0.84022187  0.17309934     0.19400
C1208       C  0.61942466  0.80224012  0.17414037    -0.18700
C1209       C  0.58284725  0.77503120  0.17833367    -0.11000
C1210       C  0.55506982  0.78521302  0.18150960     0.21600
C1211       C  0.56518461  0.82331158  0.18083763    -0.20400
C1212       C  0.60165374  0.85048736  0.17656445    -0.11200
C1213       C  0.51512361  0.75669273  0.18520997    -0.15400
C1214       C  0.49727567  0.72134045  0.18015537    -0.29200
C1215       C  0.66760867  0.86782649  0.16777376    -0.03500
C1216       C  0.68417228  0.90539569  0.16983137    -0.40000
H1217       H  0.64007574  0.79352500  0.17161899     0.12800
H1218       H  0.57642365  0.74607182  0.17907930     0.12400
H1219       H  0.54432839  0.83188797  0.18319941     0.11800
H1220       H  0.60743506  0.87915311  0.17560325     0.12100
H1221       H  0.49898431  0.76588418  0.19125862     0.14800
H1222       H  0.51241630  0.71320161  0.17321476     0.13600
H1223       H  0.68302508  0.85662344  0.16233615     0.11300
H1224       H  0.67032235  0.91616360  0.17629469     0.13300
C1225       C  0.81973027  0.25394028  0.27500870     0.19400
C1226       C  0.78027337  0.24147140  0.27404517    -0.18700
C1227       C  0.76132922  0.24808250  0.28431566    -0.11000
C1228       C  0.78164035  0.26715901  0.29576579     0.21600
C1229       C  0.82091433  0.27932534  0.29675935    -0.20400
C1230       C  0.83972066  0.27238397  0.28658239    -0.11200
C1231       C  0.76300355  0.27526628  0.30681109    -0.15400
C1232       C  0.72627825  0.25187711  0.31003076    -0.29200
C1233       C  0.83906386  0.24684577  0.26389412    -0.03500
C1234       C  0.87716166  0.26796061  0.26188630    -0.40000
H1235       H  0.76420746  0.22705513  0.26525902     0.12800
H1236       H  0.73109189  0.23892584  0.28317075     0.12400
H1237       H  0.83698178  0.29373245  0.30554635     0.11800
H1238       H  0.86974710  0.28109525  0.28795029     0.12100
H1239       H  0.78082958  0.29976384  0.31303105     0.14800
H1240       H  0.70913931  0.22574846  0.30449048     0.13600
H1241       H  0.82098835  0.22494984  0.25683769     0.11300
H1242       H  0.89446907  0.29228587  0.26820273     0.13300
C1243       C  0.03444063  0.36395454  0.21564055     0.19400
C1244       C  0.03640139  0.37635486  0.20281475    -0.18700
C1245       C  0.06746681  0.41077962  0.19894189    -0.11000
C1246       C  0.09721009  0.43317174  0.20785863     0.21600
C1247       C  0.09527611  0.42075974  0.22065547    -0.20400
C1248       C  0.06451148  0.38627796  0.22448216    -0.11200
C1249       C  0.13132010  0.46906961  0.20414119    -0.15400
C1250       C  0.14761805  0.47417144  0.19232465    -0.29200
C1251       C  0.00052767  0.32797319  0.21957715    -0.03500
C1252       C  0.98749965  0.32226959  0.23190189    -0.40000
H1253       H  0.01355161  0.35964521  0.19584551     0.12800
H1254       H  0.06797076  0.41999779  0.18905706     0.12400
H1255       H  0.11815082  0.43740267  0.22763293     0.11800
H1256       H  0.06467775  0.37705423  0.23431364     0.12100
H1257       H  0.14626057  0.48990577  0.21190098     0.14800
H1258       H  0.13449888  0.45218031  0.18481456     0.13600
H1259       H  0.98415098  0.30727845  0.21195048     0.11300
H1260       H  0.00186278  0.34478477  0.23916712     0.13300
C1261       C  0.86456620  0.14447690  0.20684754     0.19400
C1262       C  0.85597594  0.14480647  0.19359322    -0.18700
C1263       C  0.83339160  0.11099640  0.18666596    -0.11000
C1264       C  0.81948822  0.07616380  0.19287692     0.21600
C1265       C  0.82786290  0.07584461  0.20614364    -0.20400
C1266       C  0.85050936  0.10961259  0.21305627    -0.11200
C1267       C  0.79603249  0.03961411  0.18590637    -0.15400
C1268       C  0.79888174  0.03493902  0.17301127    -0.29200
C1269       C  0.88759756  0.18098990  0.21392197    -0.03500
C1270       C  0.88349023  0.18512116  0.22676371    -0.40000
H1271       H  0.86620465  0.17133791  0.18864689     0.12800
H1272       H  0.82645505  0.11230960  0.17654666     0.12400
H1273       H  0.81738177  0.04932494  0.21112293     0.11800
H1274       H  0.85729334  0.10819812  0.22318265     0.12100
H1275       H  0.77810272  0.01525989  0.19181134     0.14800
H1276       H  0.81980638  0.05851196  0.16735124     0.13600
H1277       H  0.90532898  0.20571302  0.20814060     0.11300
H1278       H  0.86279235  0.16096807  0.23224655     0.13300
C1279       C  0.88399492  0.33799511  0.34838511     0.19400
C1280       C  0.90576685  0.36114692  0.33810575    -0.18700
C1281       C  0.94054159  0.36372755  0.33452124    -0.11000
C1282       C  0.95441696  0.34293455  0.34110790     0.21600
C1283       C  0.93355435  0.32099232  0.35172317    -0.20400
C1284       C  0.89862344  0.31832466  0.35531214    -0.11200
C1285       C  0.99105303  0.34454697  0.33740336    -0.15400
C1286       C  0.00515570  0.35229611  0.32520503    -0.29200
C1287       C  0.84576262  0.33433566  0.35098430    -0.03500
C1288       C  0.82036635  0.31176519  0.35996694    -0.40000
H1289       H  0.89562001  0.37707130  0.33268873     0.12800
H1290       H  0.95654457  0.38235617  0.32667144     0.12400
H1291       H  0.94397449  0.30526423  0.35711176     0.11800
H1292       H  0.88330007  0.30047462  0.36338304     0.12100
H1293       H  0.00674780  0.33946089  0.34497767     0.14800
H1294       H  0.98900446  0.35684980  0.31765555     0.13600
H1295       H  0.83736639  0.35007324  0.34462679     0.11300
H1296       H  0.82747421  0.29576510  0.36660335     0.13300
C1297       C  0.20223262  0.48674151  0.25592338     0.19400
C1298       C  0.18182796  0.49673130  0.26472163    -0.18700
C1299       C  0.16267349  0.47382313  0.27533973    -0.11000
C1300       C  0.16308435  0.43996090  0.27727191     0.21600
C1301       C  0.18335936  0.42999606  0.26842073    -0.20400
C1302       C  0.20256319  0.45291123  0.25786616    -0.11200
C1303       C  0.14374902  0.41443885  0.28841477    -0.15400
C1304       C  0.11803805  0.41650411  0.29633626    -0.29200
C1305       C  0.22111148  0.51108433  0.24448658    -0.03500
C1306       C  0.25033893  0.51121852  0.23795713    -0.40000
H1307       H  0.18092358  0.52252833  0.26342391     0.12800
H1308       H  0.14810608  0.48314954  0.28199683     0.12400
H1309       H  0.18410214  0.40407550  0.26960388     0.11800
H1310       H  0.21680579  0.44342429  0.25111419     0.12100
H1311       H  0.15005562  0.39181175  0.28980213     0.14800
H1312       H  0.10881837  0.43680627  0.29447698     0.13600
H1313       H  0.21058476  0.52960788  0.24138178     0.11300
H1314       H  0.26257123  0.49446726  0.24137579     0.13300
C1315       C  0.15640177  0.10191127  0.42825765     0.19400
C1316       C  0.16380722  0.12302091  0.43990176    -0.18700
C1317       C  0.14712204  0.10507118  0.45155906    -0.11000
C1318       C  0.12373963  0.06557009  0.45177698     0.21600
C1319       C  0.11756371  0.04432570  0.44021712    -0.20400
C1320       C  0.13329725  0.06240709  0.42847084    -0.11200
C1321       C  0.10545105  0.04604981  0.46395862    -0.15400
C1322       C  0.08835632  0.05920194  0.47205251    -0.29200
C1323       C  0.17451863  0.12151907  0.41610530    -0.03500
C1324       C  0.15476911  0.11448456  0.40482066    -0.40000
H1325       H  0.18203706  0.15347800  0.43991833     0.12800
H1326       H  0.15284271  0.12195438  0.46042244     0.12400
H1327       H  0.09990886  0.01381050  0.44024453     0.11800
H1328       H  0.12800481  0.04559033  0.41961313     0.12100
H1329       H  0.10301329  0.01877665  0.46570377     0.14800
H1330       H  0.08751506  0.08454855  0.46959144     0.13600
H1331       H  0.20434080  0.14411682  0.41666295     0.11300
H1332       H  0.12394872  0.09490524  0.40456304     0.13300
C1333       C  0.41053815  0.21519330  0.36633406     0.19400
C1334       C  0.38741320  0.19479922  0.37682516    -0.18700
C1335       C  0.35042748  0.18928901  0.37817833    -0.11000
C1336       C  0.33543473  0.20373245  0.36893960     0.21600
C1337       C  0.35850650  0.22443425  0.35851597    -0.20400
C1338       C  0.39559399  0.22994499  0.35713510    -0.11200
C1339       C  0.29632289  0.19852427  0.37022537    -0.15400
C1340       C  0.26780565  0.16788654  0.37586683    -0.29200
C1341       C  0.45016682  0.22109540  0.36576116    -0.03500
C1342       C  0.47601769  0.24103288  0.35655766    -0.40000
H1343       H  0.39817951  0.18344933  0.38413646     0.12800
H1344       H  0.33406823  0.17442959  0.38664454     0.12400
H1345       H  0.34767344  0.23613144  0.35136149     0.11800
H1346       H  0.41205433  0.24593178  0.34888816     0.12100
H1347       H  0.29121443  0.22042989  0.36656783     0.14800
H1348       H  0.27323664  0.14595821  0.37928126     0.13600
H1349       H  0.45880970  0.20915248  0.37358298     0.11300
H1350       H  0.46884376  0.25366766  0.34863462     0.13300
C1351       C  0.15475309  0.23872218  0.35334833     0.19400
C1352       C  0.17606184  0.27767016  0.35107978    -0.18700
C1353       C  0.15873511  0.29646947  0.34543692    -0.11000
C1354       C  0.11960309  0.27650109  0.34172381     0.21600
C1355       C  0.09846119  0.23744761  0.34383477    -0.20400
C1356       C  0.11578856  0.21866447  0.34948461    -0.11200
C1357       C  0.09948439  0.29523092  0.33592588    -0.15400
C1358       C  0.11782071  0.32916599  0.33019192    -0.29200
C1359       C  0.17417496  0.22032689  0.35983813    -0.03500
C1360       C  0.15516625  0.18783449  0.36642817    -0.40000
H1361       H  0.20611123  0.29382761  0.35394618     0.12800
H1362       H  0.17602141  0.32669070  0.34431660     0.12400
H1363       H  0.06835914  0.22130048  0.34103912     0.11800
H1364       H  0.09854687  0.18845416  0.35067454     0.12100
H1365       H  0.06826776  0.27941367  0.33579533     0.14800
H1366       H  0.14883669  0.34354897  0.32923409     0.13600
H1367       H  0.20540084  0.23579190  0.36006526     0.11300
H1368       H  0.12414072  0.17409043  0.36725860     0.13300
C1369       C  0.67147615  0.89136938  0.04429028     0.19400
C1370       C  0.68441265  0.89059225  0.03159826    -0.18700
C1371       C  0.72018668  0.89330817  0.02955005    -0.11000
C1372       C  0.74415004  0.89718058  0.04019843     0.21600
C1373       C  0.73095840  0.89716469  0.05289104    -0.20400
C1374       C  0.69529395  0.89466808  0.05494676    -0.11200
C1375       C  0.78289667  0.90121715  0.03850026    -0.15400
C1376       C  0.80431229  0.91542158  0.02771603    -0.29200
C1377       C  0.63376247  0.88994790  0.04587842    -0.03500
C1378       C  0.61455959  0.88268225  0.05725688    -0.40000
H1379       H  0.66674482  0.88789838  0.02319559     0.12800
H1380       H  0.72871228  0.89201992  0.01962298     0.12400
H1381       H  0.74875388  0.89999765  0.06127455     0.11800
H1382       H  0.68723944  0.89625998  0.06489915     0.12100
H1383       H  0.79519356  0.89444360  0.04676993     0.14800
H1384       H  0.79354960  0.92473394  0.01971570     0.13600
H1385       H  0.62098537  0.89389773  0.03714856     0.11300
H1386       H  0.62585561  0.87579203  0.06573187     0.13300
C1387       C  0.41472944  0.74056217  0.11828871     0.19400
C1388       C  0.42706601  0.77926660  0.11785607    -0.18700
C1389       C  0.45202882  0.80172414  0.10807427    -0.11000
C1390       C  0.46474417  0.78567500  0.09841108     0.21600
C1391       C  0.45178255  0.74685434  0.09871073    -0.20400
C1392       C  0.42676933  0.72443480  0.10843494    -0.11200
C1393       C  0.49196916  0.80840001  0.08801980    -0.15400
C1394       C  0.49506291  0.84055723  0.08356651    -0.29200
C1395       C  0.39067211  0.71803921  0.12937484    -0.03500
C1396       C  0.39307887  0.68870118  0.13399436    -0.40000
H1397       H  0.41828785  0.79238046  0.12533491     0.12800
H1398       H  0.46203234  0.83170130  0.10833744     0.12400
H1399       H  0.46090397  0.73374830  0.09133800     0.11800
H1400       H  0.41692603  0.69448392  0.10817327     0.12100
H1401       H  0.50791847  0.79670927  0.08319804     0.14800
H1402       H  0.47636913  0.85044304  0.08739037     0.13600
H1403       H  0.37360151  0.72784334  0.13456675     0.11300
H1404       H  0.41263600  0.68092174  0.12946017     0.13300
C1405       C  0.48539276  0.10697623  0.93843459     0.19400
C1406       C  0.51348988  0.10217003  0.93193067    -0.18700
C1407       C  0.53270656  0.12404902  0.92119970    -0.11000
C1408       C  0.52429011  0.15146439  0.91675861     0.21600
C1409       C  0.49567489  0.15580456  0.92304143    -0.20400
C1410       C  0.47652099  0.13401936  0.93381870    -0.11200
C1411       C  0.54406980  0.17558582  0.90549433    -0.15400
C1412       C  0.57929435  0.18370049  0.90149703    -0.29200
C1413       C  0.46699658  0.08347840  0.95003373    -0.03500
C1414       C  0.44149463  0.08632616  0.95783262    -0.40000
H1415       H  0.52076694  0.08141705  0.93519566     0.12800
H1416       H  0.55365718  0.11895895  0.91635368     0.12400
H1417       H  0.48843998  0.17651911  0.91969434     0.11800
H1418       H  0.45504675  0.13876651  0.93838630     0.12100
H1419       H  0.52940317  0.18826607  0.90058218     0.14800
H1420       H  0.59495365  0.17214808  0.90641161     0.13600
H1421       H  0.47541044  0.06276490  0.95232561     0.11300
H1422       H  0.43057909  0.10497681  0.95547454     0.13300
C1423       C  0.20924710  0.01770194  0.00405487     0.19400
C1424       C  0.22973945  0.00254192  0.01020974    -0.18700
C1425       C  0.26592931  0.01071355  0.00560394    -0.11000
C1426       C  0.28221069  0.03407282  0.99473936     0.21600
C1427       C  0.26197359  0.04958416  0.98880196    -0.20400
C1428       C  0.22596217  0.04141069  0.99336018    -0.11200
C1429       C  0.32053686  0.04400533  0.98947358    -0.15400
C1430       C  0.33712176  0.02275509  0.99107233    -0.29200
C1431       C  0.17042635  0.00983423  0.00813682    -0.03500
C1432       C  0.14806369  0.98494957  0.01723777    -0.40000
H1433       H  0.21831793  0.98466681  0.01859435     0.12800
H1434       H  0.28120689  0.99923000  0.01073856     0.12400
H1435       H  0.27392226  0.06786538  0.98049743     0.11800
H1436       H  0.21097594  0.05359646  0.98841846     0.12100
H1437       H  0.33529784  0.06968242  0.98387905     0.14800
H1438       H  0.32274759  0.99718893  0.99672311     0.13600
H1439       H  0.15902036  0.02503917  0.00287774     0.11300
H1440       H  0.15813853  0.96930986  0.02285445     0.13300
C1441       C  0.46872134  0.97597726  0.00965862     0.19400
C1442       C  0.44975327  0.93902431  0.01432445    -0.18700
C1443       C  0.46917103  0.92591535  0.02196355    -0.11000
C1444       C  0.50812155  0.94973393  0.02533272     0.21600
C1445       C  0.52763522  0.98635708  0.02033710    -0.20400
C1446       C  0.50812627  0.99956946  0.01263836    -0.11200
C1447       C  0.52862299  0.93682602  0.03407960    -0.15400
C1448       C  0.50989872  0.91158291  0.04347517    -0.29200
C1449       C  0.44549252  0.98850978  0.00220629    -0.03500
C1450       C  0.46008084  0.02060818  0.99544349    -0.40000
H1451       H  0.41957310  0.92013028  0.01210221     0.12800
H1452       H  0.45350049  0.89698538  0.02516729     0.12400
H1453       H  0.55774505  0.00510540  0.02269217     0.11800
H1454       H  0.52390692  0.02838991  0.00937922     0.12100
H1455       H  0.55956364  0.94976185  0.03316861     0.14800
H1456       H  0.47963198  0.90203714  0.04494775     0.13600
H1457       H  0.41456786  0.96954296  0.00202018     0.11300
H1458       H  0.49092818  0.03853650  0.99450340     0.13300
C1459       C  0.44582809  0.60372997  0.62228834     0.19400
C1460       C  0.48485099  0.63016665  0.62067227    -0.18700
C1461       C  0.50485670  0.62770977  0.60993317    -0.11000
C1462       C  0.48588601  0.59913236  0.60033637     0.21600
C1463       C  0.44684112  0.57234459  0.60204847    -0.20400
C1464       C  0.42689726  0.57459292  0.61290568    -0.11200
C1465       C  0.50571197  0.59601391  0.58852090    -0.15400
C1466       C  0.53922265  0.62459623  0.58412142    -0.29200
C1467       C  0.42573124  0.60899791  0.63351463    -0.03500
C1468       C  0.39399598  0.58099510  0.63899853    -0.40000
H1469       H  0.50002347  0.65281452  0.62780337     0.12800
H1470       H  0.53515504  0.64815255  0.60935311     0.12400
H1471       H  0.43153720  0.54993591  0.59484940     0.11800
H1472       H  0.39658063  0.55419499  0.61371273     0.12100
H1473       H  0.49084197  0.56959687  0.58304300     0.14800
H1474       H  0.55230847  0.65178620  0.58915743     0.13600
H1475       H  0.43865179  0.63739403  0.63771877     0.11300
H1476       H  0.38194262  0.55198754  0.63552849     0.13300
C1477       C  0.75640004  0.80378047  0.52907957     0.19400
C1478       C  0.73621801  0.80269599  0.54040076    -0.18700
C1479       C  0.70230913  0.77000072  0.54367150    -0.11000
C1480       C  0.68793842  0.73716369  0.53575774     0.21600
C1481       C  0.70711489  0.73860327  0.52413967    -0.20400
C1482       C  0.74113540  0.77142207  0.52084133    -0.11200
C1483       C  0.65353895  0.70093758  0.53942013    -0.15400
C1484       C  0.64234910  0.69228962  0.55189262    -0.29200
C1485       C  0.79425778  0.83834133  0.52692723    -0.03500
C1486       C  0.81635909  0.84460524  0.51632594    -0.40000
H1487       H  0.74705219  0.82717550  0.54689121     0.12800
H1488       H  0.68761958  0.77074865  0.55241955     0.12400
H1489       H  0.69639857  0.71383906  0.51779493     0.11800
H1490       H  0.75559638  0.77062286  0.51205687     0.12100
H1491       H  0.63791306  0.68041542  0.53166460     0.14800
H1492       H  0.65806907  0.71261927  0.55967264     0.13600
H1493       H  0.80557019  0.85886364  0.53496110     0.11300
H1494       H  0.80645903  0.82482292  0.50812069     0.13300
C1495       C  0.29851420  0.19326802  0.51291362     0.19400
C1496       C  0.29055783  0.15719644  0.51659788    -0.18700
C1497       C  0.25581994  0.13243507  0.52255739    -0.11000
C1498       C  0.22773140  0.14289830  0.52467257     0.21600
C1499       C  0.23644195  0.17967772  0.52164766    -0.20400
C1500       C  0.27135471  0.20459234  0.51573180    -0.11200
C1501       C  0.18791122  0.11489605  0.52860987    -0.15400
C1502       C  0.17144042  0.07871288  0.52443979    -0.29200
C1503       C  0.33441649  0.21734020  0.50558861    -0.03500
C1504       C  0.35180877  0.25527659  0.50553460    -0.40000
H1505       H  0.31108555  0.14789929  0.51467199     0.12800
H1506       H  0.25062746  0.10473440  0.52517584     0.12400
H1507       H  0.21532766  0.18843819  0.52318991     0.11800
H1508       H  0.27606004  0.23191616  0.51285551     0.12100
H1509       H  0.17023912  0.12508813  0.53313601     0.14800
H1510       H  0.18827891  0.06951358  0.51880237     0.13600
H1511       H  0.34774643  0.20326225  0.50058989     0.11300
H1512       H  0.34026652  0.26934863  0.51153424     0.13300
C1513       C  0.51725777  0.28268414  0.42549397     0.19400
C1514       C  0.49636745  0.25337775  0.43424972    -0.18700
C1515       C  0.47830073  0.25900653  0.44506907    -0.11000
C1516       C  0.48040753  0.29412728  0.44722743     0.21600
C1517       C  0.50042751  0.32296929  0.43822983    -0.20400
C1518       C  0.51854843  0.31739582  0.42749812    -0.11200
C1519       C  0.46387701  0.30313568  0.45883229    -0.15400
C1520       C  0.44452157  0.27941349  0.46859547    -0.29200
C1521       C  0.53651157  0.27593965  0.41420882    -0.03500
C1522       C  0.56749263  0.30389148  0.40832229    -0.40000
H1523       H  0.49456121  0.22620839  0.43283042     0.12800
H1524       H  0.46324074  0.23590186  0.45168272     0.12400
H1525       H  0.50235767  0.35022566  0.43955151     0.11800
H1526       H  0.53310525  0.34025796  0.42073459     0.12100
H1527       H  0.46858473  0.33169757  0.45941899     0.14800
H1528       H  0.43670318  0.24993032  0.46799260     0.13600
H1529       H  0.52554049  0.24687666  0.41092920     0.11300
H1530       H  0.58019372  0.33275382  0.41201152     0.13300
C1531       C  0.53778498  0.50685390  0.52845923     0.19400
C1532       C  0.52129404  0.50011502  0.51591335    -0.18700
C1533       C  0.50110668  0.46330899  0.51067327    -0.11000
C1534       C  0.49739963  0.43267540  0.51790061     0.21600
C1535       C  0.51515534  0.43966428  0.53020739    -0.20400
C1536       C  0.53555184  0.47636253  0.53537748    -0.11200
C1537       C  0.47342925  0.39296319  0.51329849    -0.15400
C1538       C  0.46826284  0.38257216  0.50061500    -0.29200
C1539       C  0.55545098  0.54541790  0.53439648    -0.03500
C1540       C  0.55380281  0.55065970  0.54733396    -0.40000
H1541       H  0.52273183  0.52314320  0.51037975     0.12800
H1542       H  0.48720537  0.45878645  0.50122850     0.12400
H1543       H  0.51299793  0.41656489  0.53589006     0.11800
H1544       H  0.54915870  0.48066352  0.54486538     0.12100
H1545       H  0.46104519  0.37131972  0.52066546     0.14800
H1546       H  0.48375539  0.40350966  0.49323381     0.13600
H1547       H  0.56638635  0.56939735  0.52795524     0.11300
H1548       H  0.53912150  0.52611372  0.55347716     0.13300
C1549       C  0.76560990  0.40695860  0.78403400     0.19400
C1550       C  0.78064431  0.39380757  0.77426384    -0.18700
C1551       C  0.79432987  0.41364332  0.76270632    -0.11000
C1552       C  0.79382537  0.44744000  0.76086961     0.21600
C1553       C  0.77844262  0.46034866  0.77059850    -0.20400
C1554       C  0.76477354  0.44053589  0.78214135    -0.11200
C1555       C  0.80985885  0.47041190  0.74909243    -0.15400
C1556       C  0.83944576  0.47162510  0.74256773    -0.29200
C1557       C  0.75130048  0.38525586  0.79612205    -0.03500
C1558       C  0.72252898  0.38458531  0.80299401    -0.40000
H1559       H  0.78136007  0.36789428  0.77551939     0.12800
H1560       H  0.80498743  0.40231435  0.75522760     0.12400
H1561       H  0.77789642  0.48636359  0.76940016     0.11800
H1562       H  0.75434753  0.45202379  0.78964314     0.12100
H1563       H  0.79956620  0.48953897  0.74657526     0.14800
H1564       H  0.85218104  0.45529931  0.74600072     0.13600
H1565       H  0.76338991  0.36786536  0.79903394     0.11300
H1566       H  0.70866075  0.39998132  0.79968174     0.13300
C1567       C  0.08478296  0.55422479  0.70225775     0.19400
C1568       C  0.07679790  0.56833775  0.71368962    -0.18700
C1569       C  0.04217360  0.56837581  0.71496948    -0.11000
C1570       C  0.01439106  0.55369243  0.70487282     0.21600
C1571       C  0.02248617  0.53996230  0.69338069    -0.20400
C1572       C  0.05713425  0.53987572  0.69209888    -0.11200
C1573       C  0.97614368  0.55076648  0.70625189    -0.15400
C1574       C  0.95868712  0.54467031  0.71787263    -0.29200
C1575       C  0.12256065  0.55587562  0.70126994    -0.03500
C1576       C  0.13938815  0.55690728  0.68981619    -0.40000
H1577       H  0.09767428  0.57985352  0.72161391     0.12800
H1578       H  0.03740638  0.58013510  0.72384346     0.12400
H1579       H  0.00148009  0.52832940  0.68550100     0.11800
H1580       H  0.06170129  0.52795514  0.68323964     0.12100
H1581       H  0.96028363  0.54905132  0.69742565     0.14800
H1582       H  0.97329973  0.54257869  0.72647484     0.13600
H1583       H  0.13889126  0.56047264  0.71025656     0.11300
H1584       H  0.12495994  0.55554483  0.68069428     0.13300
C1585       C  0.62566828  0.69064483  0.66536404     0.19400
C1586       C  0.61565521  0.69956709  0.67750755    -0.18700
C1587       C  0.57940718  0.69593408  0.67938505    -0.11000
C1588       C  0.55208530  0.68290818  0.66914161     0.21600
C1589       C  0.56210629  0.67408341  0.65699422    -0.20400
C1590       C  0.59825218  0.67753257  0.65513258    -0.11200
C1591       C  0.51300966  0.67819607  0.67071979    -0.15400
C1592       C  0.49485893  0.67116789  0.68227801    -0.29200
C1593       C  0.66446790  0.69454526  0.66385891    -0.03500
C1594       C  0.68131076  0.69781269  0.65219621    -0.40000
H1595       H  0.63610274  0.70970479  0.68556333     0.12800
H1596       H  0.57319097  0.70387645  0.68880953     0.12400
H1597       H  0.54158274  0.66377222  0.64896148     0.11800
H1598       H  0.60410044  0.66915595  0.64573317     0.12100
H1599       H  0.49761262  0.67777071  0.66192273     0.14800
H1600       H  0.50876828  0.66860497  0.69097691     0.13600
H1601       H  0.68039132  0.69667318  0.67271175     0.11300
H1602       H  0.66708082  0.69932212  0.64341089     0.13300
C1603       C  0.86999635  0.82845578  0.58599362     0.19400
C1604       C  0.86303191  0.79233800  0.58912683    -0.18700
C1605       C  0.83847982  0.77256784  0.59936158    -0.11000
C1606       C  0.82104949  0.78899607  0.60686862     0.21600
C1607       C  0.82767857  0.82493520  0.60363200    -0.20400
C1608       C  0.85216268  0.84466278  0.59339706    -0.11200
C1609       C  0.79620946  0.76968820  0.61819134    -0.15400
C1610       C  0.80069038  0.74484341  0.62535879    -0.29200
C1611       C  0.89596014  0.84863802  0.57500091    -0.03500
C1612       C  0.89097015  0.87288238  0.56771275    -0.40000
H1613       H  0.87620345  0.77917482  0.58351841     0.12800
H1614       H  0.83300063  0.74435300  0.60126482     0.12400
H1615       H  0.81456966  0.83817043  0.60923762     0.11800
H1616       H  0.85761933  0.87287893  0.59149911     0.12100
H1617       H  0.77591252  0.77843586  0.62124290     0.14800
H1618       H  0.82366219  0.73916624  0.62294093     0.13600
H1619       H  0.91834291  0.84212769  0.57250287     0.11300
H1620       H  0.86711464  0.87754863  0.56974695     0.13300
C1621       C  0.83258191  0.59888797  0.69326898     0.19400
C1622       C  0.84981114  0.63807949  0.69181882    -0.18700
C1623       C  0.83026385  0.65370704  0.68554366    -0.11000
C1624       C  0.79309017  0.63035405  0.68031580     0.21600
C1625       C  0.77544609  0.59117779  0.68198808    -0.20400
C1626       C  0.79501321  0.57549752  0.68830157    -0.11200
C1627       C  0.77256415  0.64599168  0.67282099    -0.15400
C1628       C  0.79163549  0.67789195  0.66596094    -0.29200
C1629       C  0.85496098  0.58378154  0.69991073    -0.03500
C1630       C  0.83841768  0.55021410  0.70585073    -0.40000
H1631       H  0.87850726  0.65678162  0.69564446     0.12800
H1632       H  0.84437731  0.68413088  0.68488049     0.12400
H1633       H  0.74682865  0.57255529  0.67808548     0.11800
H1634       H  0.78089135  0.54508424  0.68895820     0.12100
H1635       H  0.74144048  0.62923244  0.67198560     0.14800
H1636       H  0.82283077  0.69234008  0.66576109     0.13600
H1637       H  0.88587035  0.60228228  0.70075961     0.11300
H1638       H  0.80728196  0.53326822  0.70600934     0.13300
C1639       C  0.41943593  0.12342050  0.86702505     0.19400
C1640       C  0.40602783  0.11307699  0.87979187    -0.18700
C1641       C  0.36865133  0.08370343  0.88199349    -0.11000
C1642       C  0.34363718  0.06457168  0.87141165     0.21600
C1643       C  0.35690406  0.07542513  0.85864505    -0.20400
C1644       C  0.39439119  0.10467786  0.85644618    -0.11200
C1645       C  0.30457617  0.03165893  0.87324386    -0.15400
C1646       C  0.28437134  0.02516899  0.88434958    -0.29200
C1647       C  0.45943109  0.15434998  0.86518895    -0.03500
C1648       C  0.48112860  0.15661155  0.85480915    -0.40000
H1649       H  0.42487747  0.12719977  0.88809409     0.12800
H1650       H  0.35996059  0.07549400  0.89195747     0.12400
H1651       H  0.33819207  0.06112959  0.85033435     0.11800
H1652       H  0.40354562  0.11273660  0.84649906     0.12100
H1653       H  0.29177891  0.01236721  0.86495146     0.14800
H1654       H  0.29520141  0.04619522  0.89220696     0.13600
H1655       H  0.47216469  0.17495997  0.87315264     0.11300
H1656       H  0.46959976  0.13501720  0.84713554     0.13300
C1657       C  0.08451837  0.93999371  0.95148301     0.19400
C1658       C  0.11630904  0.97198926  0.94632323    -0.18700
C1659       C  0.13304186  0.96966193  0.93464275    -0.11000
C1660       C  0.11818017  0.93510466  0.92768148     0.21600
C1661       C  0.08638579  0.90302729  0.93281307    -0.20400
C1662       C  0.06957995  0.90534925  0.94453818    -0.11200
C1663       C  0.13699846  0.93088004  0.91570855    -0.15400
C1664       C  0.16094754  0.96018792  0.90825374    -0.29200
C1665       C  0.06853792  0.94469424  0.96408529    -0.03500
C1666       C  0.03904059  0.91678712  0.97059545    -0.40000
H1667       H  0.12871634  0.99900447  0.95145983     0.12800
H1668       H  0.15834361  0.99486573  0.93140617     0.12400
H1669       H  0.07461357  0.87594715  0.92775893     0.11800
H1670       H  0.04517109  0.87986150  0.94803849     0.12100
H1671       H  0.13222805  0.90284090  0.91342014     0.14800
H1672       H  0.16524078  0.98808008  0.91047665     0.13600
H1673       H  0.08208764  0.97316375  0.96824682     0.11300
H1674       H  0.02466236  0.88796000  0.96685577     0.13300
C1675       C  0.88874840  0.45727325  0.83877939     0.19400
C1676       C  0.90036124  0.46762732  0.82586774    -0.18700
C1677       C  0.93501543  0.50031959  0.82316181    -0.11000
C1678       C  0.95946176  0.52328393  0.83337624     0.21600
C1679       C  0.94826460  0.51228726  0.84633475    -0.20400
C1680       C  0.91327759  0.47968485  0.84903670    -0.11200
C1681       C  0.99583564  0.55951232  0.83104997    -0.15400
C1682       C  0.01124744  0.57208420  0.81917624    -0.29200
C1683       C  0.85076390  0.42307241  0.84097882    -0.03500
C1684       C  0.82874893  0.41840791  0.85150568    -0.40000
H1685       H  0.88198660  0.45080651  0.81779008     0.12800
H1686       H  0.94174820  0.50748145  0.81303930     0.12400
H1687       H  0.96649403  0.52920759  0.85442342     0.11800
H1688       H  0.90568110  0.47205676  0.85911572     0.12100
H1689       H  0.01078079  0.57659564  0.83963164     0.14800
H1690       H  0.99883119  0.55452503  0.81051025     0.13600
H1691       H  0.83898372  0.40245728  0.83298513     0.11300
H1692       H  0.83913108  0.43970143  0.85927542     0.13300
C1693       C  0.15207904  0.63873052  0.77335598     0.19400
C1694       C  0.14632364  0.64247991  0.76006737    -0.18700
C1695       C  0.17177921  0.64265743  0.75068893    -0.11000
C1696       C  0.20275095  0.63791376  0.75443425     0.21600
C1697       C  0.20836978  0.63387581  0.76768931    -0.20400
C1698       C  0.18360756  0.63482295  0.77710307    -0.11200
C1699       C  0.22676693  0.63298872  0.74453074    -0.15400
C1700       C  0.24065072  0.65516967  0.73408238    -0.29200
C1701       C  0.12354949  0.63636329  0.78306722    -0.03500
C1702       C  0.13390751  0.65174314  0.79514454    -0.40000
H1703       H  0.12194960  0.64501985  0.75694308     0.12800
H1704       H  0.16633106  0.64486036  0.74046954     0.12400
H1705       H  0.23172231  0.62957650  0.77073455     0.11800
H1706       H  0.18824084  0.63099377  0.78724754     0.12100
H1707       H  0.23312915  0.61034977  0.74588951     0.14800
H1708       H  0.23724632  0.67981395  0.73325146     0.13600
H1709       H  0.09349315  0.62261476  0.78008428     0.11300
H1710       H  0.16426800  0.66877246  0.79764318     0.13300
C1711       C  0.15415401  0.82795678  0.86252318     0.19400
C1712       C  0.11763347  0.80582461  0.85678423    -0.18700
C1713       C  0.11029121  0.77632688  0.84802713    -0.11000
C1714       C  0.13931522  0.76784321  0.84490544     0.21600
C1715       C  0.17587333  0.78990748  0.85061319    -0.20400
C1716       C  0.18321566  0.81936789  0.85941525    -0.11200
C1717       C  0.13270424  0.73679473  0.83557940    -0.15400
C1718       C  0.09760035  0.70670548  0.83316661    -0.29200
C1719       C  0.16057650  0.86002131  0.87137915    -0.03500
C1720       C  0.19569092  0.88838487  0.87486162    -0.40000
H1721       H  0.09475232  0.81179627  0.85890612     0.12800
H1722       H  0.08205424  0.76088899  0.84354094     0.12400
H1723       H  0.19878160  0.78407033  0.84835916     0.11800
H1724       H  0.21160436  0.83483082  0.86375672     0.12100
H1725       H  0.15782467  0.73797664  0.83115702     0.14800
H1726       H  0.07317256  0.70404412  0.83858121     0.13600
H1727       H  0.13549019  0.86179472  0.87424777     0.11300
H1728       H  0.22100414  0.88832299  0.87125180     0.13300
C1729       C  0.52748381  0.16050713  0.28885073     0.19400
C1730       C  0.52577370  0.12693836  0.28446258    -0.18700
C1731       C  0.50554190  0.10822822  0.27306654    -0.11000
C1732       C  0.48632212  0.12266307  0.26573181     0.21600
C1733       C  0.48796696  0.15622192  0.27009285    -0.20400
C1734       C  0.50816717  0.17494167  0.28152474    -0.11200
C1735       C  0.46656485  0.10511633  0.25308069    -0.15400
C1736       C  0.45310510  0.06847677  0.24970299    -0.29200
C1737       C  0.55034432  0.17931828  0.30092999    -0.03500
C1738       C  0.55248434  0.20989658  0.30699294    -0.40000
H1739       H  0.54058057  0.11525554  0.28981244     0.12800
H1740       H  0.50613191  0.08317663  0.26988265     0.12400
H1741       H  0.47372919  0.16817815  0.26456917     0.11800
H1742       H  0.50883584  0.20082279  0.28436438     0.12100
H1743       H  0.46360037  0.12371486  0.24637279     0.14800
H1744       H  0.45586266  0.05015606  0.25663076     0.13600
H1745       H  0.56612229  0.16679889  0.30515073     0.11300
H1746       H  0.53707795  0.22321258  0.30320899     0.13300
C1747       C  0.40578852  0.90926020  0.20316242     0.19400
C1748       C  0.39138439  0.89167289  0.19092817    -0.18700
C1749       C  0.38720285  0.85624015  0.18792652    -0.11000
C1750       C  0.39755629  0.83761124  0.19714409     0.21600
C1751       C  0.41307706  0.85576705  0.20920750    -0.20400
C1752       C  0.41722986  0.89110715  0.21220115    -0.11200
C1753       C  0.39223806  0.79919257  0.19486776    -0.15400
C1754       C  0.37008503  0.77490740  0.18530976    -0.29200
C1755       C  0.40929555  0.94679308  0.20597171    -0.03500
C1756       C  0.41108965  0.96072761  0.21816287    -0.40000
H1757       H  0.38294326  0.90525510  0.18369227     0.12800
H1758       H  0.37604135  0.84391331  0.17838267     0.12400
H1759       H  0.42174504  0.84236403  0.21644417     0.11800
H1760       H  0.42988292  0.90411315  0.22154184     0.12100
H1761       H  0.40509344  0.78945769  0.20205860     0.14800
H1762       H  0.35595512  0.78318593  0.17815046     0.13600
H1763       H  0.40992520  0.96309402  0.19762898     0.11300
H1764       H  0.41039827  0.94436578  0.22649073     0.13300
C1765       C  0.11970021  0.07241658  0.08964283     0.19400
C1766       C  0.11112030  0.09202802  0.09920626    -0.18700
C1767       C  0.13597436  0.10983318  0.10985238    -0.11000
C1768       C  0.17041763  0.10887450  0.11102589     0.21600
C1769       C  0.17935325  0.09000593  0.10126265    -0.20400
C1770       C  0.15442922  0.07206960  0.09067796    -0.11200
C1771       C  0.19714453  0.12543043  0.12242144    -0.15400
C1772       C  0.19551366  0.14841686  0.13170032    -0.29200
C1773       C  0.09235670  0.05365811  0.07856199    -0.03500
C1774       C  0.08954594  0.02388455  0.07173509    -0.40000
H1775       H  0.08468761  0.09298319  0.09856228     0.12800
H1776       H  0.12754381  0.12353959  0.11717584     0.12400
H1777       H  0.20576343  0.08898632  0.10184412     0.11800
H1778       H  0.16274311  0.05840818  0.08327722     0.12100
H1779       H  0.22000491  0.11863707  0.12304040     0.14800
H1780       H  0.17522305  0.15843061  0.13080357     0.13600
H1781       H  0.07292408  0.06405476  0.07623595     0.11300
H1782       H  0.10708745  0.01166732  0.07443270     0.13300
C1783       C  0.26237168  0.30381246  0.17219644     0.19400
C1784       C  0.23354722  0.31051086  0.17696588    -0.18700
C1785       C  0.24285974  0.34543425  0.18262660    -0.11000
C1786       C  0.28134629  0.37496852  0.18335251     0.21600
C1787       C  0.31038686  0.36790104  0.17901794    -0.20400
C1788       C  0.30105931  0.33272493  0.17343853    -0.11200
C1789       C  0.29169742  0.41391188  0.18772652    -0.15400
C1790       C  0.26789938  0.42760450  0.18567491    -0.29200
C1791       C  0.25066821  0.26696309  0.16551576    -0.03500
C1792       C  0.27256946  0.25054688  0.16533407    -0.40000
H1793       H  0.20358926  0.28862019  0.17625241     0.12800
H1794       H  0.21974828  0.34929584  0.18627557     0.12400
H1795       H  0.34024721  0.39012821  0.17946935     0.11800
H1796       H  0.32402414  0.32877949  0.16968662     0.12100
H1797       H  0.32097200  0.43307760  0.19106311     0.14800
H1798       H  0.24007691  0.40962673  0.18105265     0.13600
H1799       H  0.22186085  0.25181698  0.16133861     0.11300
H1800       H  0.29984091  0.26412639  0.17059988     0.13300
C1801       C  0.35322608  0.07737488  0.18968468     0.19400
C1802       C  0.31500528  0.05981603  0.18517951    -0.18700
C1803       C  0.30122177  0.08048633  0.17858073    -0.11000
C1804       C  0.32573188  0.11920621  0.17616398     0.21600
C1805       C  0.36439793  0.13616837  0.18013473    -0.20400
C1806       C  0.37808900  0.11555142  0.18674441    -0.11200
C1807       C  0.31197739  0.14359951  0.17035367    -0.15400
C1808       C  0.27830863  0.13033211  0.16388595    -0.29200
C1809       C  0.36611764  0.05553313  0.19765981    -0.03500
C1810       C  0.39382148  0.07216172  0.20690933    -0.40000
H1811       H  0.29535134  0.03034825  0.18720188     0.12800
H1812       H  0.27111389  0.06619564  0.17587467     0.12400
H1813       H  0.38405488  0.16575508  0.17829024     0.11800
H1814       H  0.40812850  0.12972172  0.18959206     0.12100
H1815       H  0.33092481  0.17392937  0.17132782     0.14800
H1816       H  0.26074085  0.10026693  0.16184939     0.13600
H1817       H  0.35027260  0.02495583  0.19662098     0.11300
H1818       H  0.40669036  0.10235124  0.20872873     0.13300
C1819       C  0.47853763  0.04637471  0.34288219     0.19400
C1820       C  0.48312748  0.02035495  0.33509013    -0.18700
C1821       C  0.45185042  0.98444661  0.33228396    -0.11000
C1822       C  0.41506299  0.97408525  0.33707069     0.21600
C1823       C  0.41066646  0.99993707  0.34501161    -0.20400
C1824       C  0.44188251  0.03575211  0.34782195    -0.11200
C1825       C  0.38057313  0.93668528  0.33421914    -0.15400
C1826       C  0.37773948  0.91412092  0.32401835    -0.29200
C1827       C  0.51201740  0.08487554  0.34503060    -0.03500
C1828       C  0.51438349  0.10826087  0.35486535    -0.40000
H1829       H  0.51106067  0.02783452  0.33116811     0.12800
H1830       H  0.45685323  0.96501350  0.32648105     0.12400
H1831       H  0.38271089  0.99267400  0.34885729     0.11800
H1832       H  0.43672413  0.05520457  0.35354620     0.12100
H1833       H  0.35609822  0.92881517  0.34048167     0.14800
H1834       H  0.40143166  0.92374764  0.31724400     0.13600
H1835       H  0.53557774  0.09431043  0.33817002     0.11300
H1836       H  0.49201772  0.09888141  0.36215347     0.13300
C1837       C  0.32255307  0.72347024  0.25619896     0.19400
C1838       C  0.34828761  0.76045997  0.26048092    -0.18700
C1839       C  0.34100684  0.77530027  0.27181583    -0.11000
C1840       C  0.30767077  0.75336157  0.27918935     0.21600
C1841       C  0.28292880  0.71566351  0.27529009    -0.20400
C1842       C  0.29014877  0.70084153  0.26390002    -0.11200
C1843       C  0.29911110  0.76865543  0.29125069    -0.15400
C1844       C  0.31215659  0.80583226  0.29310985    -0.29200
C1845       C  0.33065965  0.70916970  0.24382007    -0.03500
C1846       C  0.30239038  0.68261289  0.23627858    -0.40000
H1847       H  0.37392117  0.77813995  0.25493846     0.12800
H1848       H  0.36195984  0.80382059  0.27483837     0.12400
H1849       H  0.25773741  0.69775879  0.28099469     0.11800
H1850       H  0.27053000  0.67158110  0.26125463     0.12100
H1851       H  0.28254481  0.74896018  0.29883890     0.14800
H1852       H  0.32817980  0.82524781  0.28539813     0.13600
H1853       H  0.36031197  0.72154294  0.24066948     0.11300
H1854       H  0.27268213  0.67150862  0.23916779     0.13300
C1855       C  0.00532683  0.84071307  0.45325035     0.19400
C1856       C  0.98910418  0.83712346  0.44079583    -0.18700
C1857       C  0.99193398  0.81400879  0.43114483    -0.11000
C1858       C  0.01018992  0.79316039  0.43387360     0.21600
C1859       C  0.02613171  0.79639327  0.44636355    -0.20400
C1860       C  0.02426307  0.82040022  0.45592296    -0.11200
C1861       C  0.00977757  0.76558812  0.42415703    -0.15400
C1862       C  0.01522520  0.77291405  0.41132581    -0.29200
C1863       C  0.99902143  0.86304306  0.46356606    -0.03500
C1864       C  0.02530571  0.88359719  0.47287344    -0.40000
H1865       H  0.97386497  0.85200746  0.43857046     0.12800
H1866       H  0.97849884  0.81127564  0.42170790     0.12400
H1867       H  0.03979165  0.78010982  0.44874179     0.11800
H1868       H  0.03621524  0.82186146  0.46553938     0.12100
H1869       H  0.00501943  0.73862437  0.42764811     0.14800
H1870       H  0.02367703  0.80105455  0.40794431     0.13600
H1871       H  0.97203912  0.86319031  0.46328397     0.11300
H1872       H  0.05351813  0.88604914  0.47259458     0.13300
C1873       C  0.89440717  0.57614373  0.38367114     0.19400
C1874       C  0.89621168  0.54539235  0.37816234    -0.18700
C1875       C  0.86283555  0.51067146  0.37591565    -0.11000
C1876       C  0.82658470  0.50584412  0.37904242     0.21600
C1877       C  0.82466101  0.53615331  0.38489751    -0.20400
C1878       C  0.85813448  0.57112175  0.38706997    -0.11200
C1879       C  0.79064006  0.46923811  0.37654277    -0.15400
C1880       C  0.78695878  0.44586211  0.36648807    -0.29200
C1881       C  0.93090370  0.61301332  0.38497411    -0.03500
C1882       C  0.93487294  0.64369681  0.39152085    -0.40000
H1883       H  0.92365127  0.54827125  0.37549417     0.12800
H1884       H  0.86559860  0.48756377  0.37183421     0.12400
H1885       H  0.79708542  0.53302869  0.38750827     0.11800
H1886       H  0.85511459  0.59405094  0.39113242     0.12100
H1887       H  0.76650250  0.46173312  0.38300561     0.14800
H1888       H  0.81037030  0.45426438  0.35964122     0.13600
H1889       H  0.95589615  0.61458499  0.38030375     0.11300
H1890       H  0.91119256  0.64176582  0.39719039     0.13300
C1891       C  0.18166393  0.77297517  0.34337649     0.19400
C1892       C  0.14579931  0.76809080  0.33964620    -0.18700
C1893       C  0.11785143  0.76153548  0.34901758    -0.11000
C1894       C  0.12514767  0.75928638  0.36233042     0.21600
C1895       C  0.16059005  0.76310878  0.36600022    -0.20400
C1896       C  0.18841479  0.76949096  0.35664118    -0.11200
C1897       C  0.09701621  0.75389833  0.37268541    -0.15400
C1898       C  0.05880962  0.73569132  0.37057701    -0.29200
C1899       C  0.21204293  0.78351621  0.33335897    -0.03500
C1900       C  0.24953265  0.80588982  0.33635971    -0.40000
H1901       H  0.13988177  0.77065603  0.32950644     0.12800
H1902       H  0.09113681  0.75942212  0.34583668     0.12400
H1903       H  0.16677178  0.76111009  0.37616343     0.11800
H1904       H  0.21520789  0.77182167  0.35985244     0.12100
H1905       H  0.10791740  0.76273795  0.38260022     0.14800
H1906       H  0.04724397  0.72318757  0.36102618     0.13600
H1907       H  0.20320844  0.77640415  0.32319666     0.11300
H1908       H  0.25760749  0.81593526  0.34638064     0.13300
C1909       C  0.20918064  0.26149786  0.03297706     0.19400
C1910       C  0.19815603  0.24213551  0.02085827    -0.18700
C1911       C  0.16814479  0.20452039  0.01997791    -0.11000
C1912       C  0.14835103  0.18549372  0.03125531     0.21600
C1913       C  0.15866408  0.20514166  0.04327662    -0.20400
C1914       C  0.18861690  0.24258713  0.04416672    -0.11200
C1915       C  0.11605016  0.14573562  0.03097172    -0.15400
C1916       C  0.11106226  0.11998765  0.02165321    -0.29200
C1917       C  0.24117296  0.30159549  0.03345458    -0.03500
C1918       C  0.26008854  0.31993969  0.04453033    -0.40000
H1919       H  0.21287293  0.25615532  0.01202771     0.12800
H1920       H  0.16020528  0.19079960  0.01045297     0.12400
H1921       H  0.14347711  0.19138134  0.05207588     0.11800
H1922       H  0.19479623  0.25652290  0.05363568     0.12100
H1923       H  0.09645381  0.13689436  0.03917480     0.14800
H1924       H  0.13122421  0.12770861  0.01366397     0.13600
H1925       H  0.24910519  0.31639139  0.02427608     0.11300
H1926       H  0.25227308  0.30534599  0.05373099     0.13300
C1927       C  0.34019180  0.45065872  0.09460561     0.19400
C1928       C  0.32216064  0.43338044  0.10625935    -0.18700
C1929       C  0.32941387  0.45478522  0.11776846    -0.11000
C1930       C  0.35495322  0.49407796  0.11785970     0.21600
C1931       C  0.37481658  0.51104304  0.10642950    -0.20400
C1932       C  0.36748734  0.48962310  0.09488198    -0.11200
C1933       C  0.35951358  0.51797166  0.12955413    -0.15400
C1934       C  0.32910469  0.51004802  0.13705789    -0.29200
C1935       C  0.33023403  0.42703927  0.08245867    -0.03500
C1936       C  0.33415997  0.44141458  0.07046825    -0.40000
H1937       H  0.30172279  0.40333855  0.10639798     0.12800
H1938       H  0.31466072  0.44058170  0.12656114     0.12400
H1939       H  0.39509595  0.54112555  0.10632959     0.11800
H1940       H  0.38333935  0.50374647  0.08625209     0.12100
H1941       H  0.38682430  0.54367040  0.13135168     0.14800
H1942       H  0.30134440  0.48567111  0.13455265     0.13600
H1943       H  0.31878666  0.39688874  0.08348895     0.11300
H1944       H  0.34533820  0.47150567  0.06945354     0.13300
C1945       C  0.63665152  0.45610682  0.93907077     0.19400
C1946       C  0.62409061  0.41738340  0.93997424    -0.18700
C1947       C  0.62957697  0.39786528  0.92965356    -0.11000
C1948       C  0.64791892  0.41686672  0.91823445     0.21600
C1949       C  0.66106673  0.45558185  0.91737228    -0.20400
C1950       C  0.65516112  0.47501392  0.92759980    -0.11200
C1951       C  0.65437441  0.39733393  0.90712124    -0.15400
C1952       C  0.62895208  0.36153912  0.90352217    -0.29200
C1953       C  0.62825485  0.47492944  0.95006254    -0.03500
C1954       C  0.64163678  0.51238316  0.95104649    -0.40000
H1955       H  0.60977249  0.40209496  0.94867568     0.12800
H1956       H  0.61988417  0.36811098  0.93067679     0.12400
H1957       H  0.67521174  0.47067215  0.90861741     0.11800
H1958       H  0.66465153  0.50452233  0.92625176     0.12100
H1959       H  0.67954739  0.41389200  0.90115883     0.14800
H1960       H  0.60216446  0.34578598  0.90877694     0.13600
H1961       H  0.61024473  0.45687440  0.95779315     0.11300
H1962       H  0.66227244  0.53162265  0.94413934     0.13300
C1963       C  0.77991381  0.73936525  0.00485978     0.19400
C1964       C  0.76470800  0.73523927  0.99219079    -0.18700
C1965       C  0.73094387  0.70246238  0.98839540    -0.11000
C1966       C  0.71172511  0.67277140  0.99717902     0.21600
C1967       C  0.72566955  0.67760983  0.01005214    -0.20400
C1968       C  0.75961247  0.71046207  0.01386485    -0.11200
C1969       C  0.67836384  0.63590708  0.99296620    -0.15400
C1970       C  0.67610658  0.62160758  0.98084190    -0.29200
C1971       C  0.81776343  0.77342146  0.00790513    -0.03500
C1972       C  0.83238476  0.78582227  0.02000719    -0.40000
H1973       H  0.77937481  0.75725686  0.98510347     0.12800
H1974       H  0.72023519  0.70025286  0.97852564     0.12400
H1975       H  0.71117147  0.65522813  0.01701755     0.11800
H1976       H  0.77038211  0.71234231  0.02368705     0.12100
H1977       H  0.65779284  0.61875845  0.00031156     0.14800
H1978       H  0.69921345  0.63769509  0.97406261     0.13600
H1979       H  0.83389160  0.79030860  0.99964164     0.11300
H1980       H  0.81598556  0.77180975  0.02859831     0.13300
C1981       C  0.48648186  0.49053544  0.99524810     0.19400
C1982       C  0.45988632  0.50299869  0.99687806    -0.18700
C1983       C  0.42506204  0.48050953  0.00324823    -0.11000
C1984       C  0.41644568  0.44522047  0.00820873     0.21600
C1985       C  0.44238466  0.43224875  0.00616385    -0.20400
C1986       C  0.47718613  0.45474250  0.99991432    -0.11200
C1987       C  0.38232052  0.42234569  0.01638832    -0.15400
C1988       C  0.36801296  0.43836907  0.02447521    -0.29200
C1989       C  0.52435306  0.51591208  0.98923979    -0.03500
C1990       C  0.54501984  0.50236675  0.98337404    -0.40000
H1991       H  0.46623685  0.53032987  0.99332860     0.12800
H1992       H  0.40520792  0.49096323  0.00439140     0.12400
H1993       H  0.43652289  0.40530938  0.00996261     0.11800
H1994       H  0.49723742  0.44443504  0.99926286     0.12100
H1995       H  0.37276120  0.39248472  0.01728746     0.14800
H1996       H  0.38040202  0.46884916  0.02453835     0.13600
H1997       H  0.53481030  0.54609185  0.98933629     0.11300
H1998       H  0.53254399  0.47203298  0.98212998     0.13300
C1999       C  0.13657046  0.44079431  0.59886649     0.19400
C2000       C  0.14370084  0.42552396  0.60997039    -0.18700
C2001       C  0.16125013  0.44821052  0.62108595    -0.11000
C2002       C  0.17176186  0.48669878  0.62134005     0.21600
C2003       C  0.16313676  0.50150750  0.61044734    -0.20400
C2004       C  0.14586354  0.47893990  0.59932546    -0.11200
C2005       C  0.19175074  0.51214214  0.63274932    -0.15400
C2006       C  0.21542770  0.50692819  0.64060688    -0.29200
C2007       C  0.11656071  0.41587653  0.58733467    -0.03500
C2008       C  0.12071742  0.42954036  0.57523153    -0.40000
H2009       H  0.13577240  0.39600064  0.61002673     0.12800
H2010       H  0.16603549  0.43536809  0.62950000     0.12400
H2011       H  0.17017958  0.53079219  0.61048439     0.11800
H2012       H  0.13905762  0.49133338  0.59123245     0.12100
H2013       H  0.18902593  0.53711025  0.63416049     0.14800
H2014       H  0.22007703  0.48330847  0.63870808     0.13600
H2015       H  0.09596786  0.38628691  0.58898287     0.11300
H2016       H  0.14134156  0.45907778  0.57357221     0.13300
C2017       C  0.05639227  0.26531837  0.53764491     0.19400
C2018       C  0.08630006  0.25834214  0.53442601    -0.18700
C2019       C  0.07849315  0.22392546  0.52864787    -0.11000
C2020       C  0.04035165  0.19525552  0.52607803     0.21600
C2021       C  0.01045131  0.20257762  0.52888095    -0.20400
C2022       C  0.01824016  0.23702440  0.53469773    -0.11200
C2023       C  0.03078650  0.15688558  0.52120151    -0.15400
C2024       C  0.05243863  0.14150156  0.52437896    -0.29200
C2025       C  0.06640710  0.30203493  0.54426668    -0.03500
C2026       C  0.04268235  0.31643545  0.54474723    -0.40000
H2027       H  0.11594411  0.27961045  0.53644303     0.12800
H2028       H  0.10243314  0.21983842  0.52627056     0.12400
H2029       H  0.98082091  0.18102468  0.52700920     0.11800
H2030       H  0.99413061  0.24067365  0.53718107     0.12100
H2031       H  0.00315833  0.13926942  0.51637572     0.14800
H2032       H  0.07798468  0.15767025  0.53041622     0.13600
H2033       H  0.09537679  0.31883834  0.54821361     0.11300
H2034       H  0.01490205  0.30136241  0.53986654     0.13300
C2035       C  0.90821944  0.72795523  0.50923345     0.19400
C2036       C  0.91063326  0.71189770  0.49733669    -0.18700
C2037       C  0.90498573  0.67531389  0.49679287    -0.11000
C2038       C  0.89581598  0.65353945  0.50814504     0.21600
C2039       C  0.89309179  0.66951669  0.52004488    -0.20400
C2040       C  0.89897139  0.70625256  0.52059845    -0.11200
C2041       C  0.88912470  0.61430347  0.50790402    -0.15400
C2042       C  0.87697560  0.59216980  0.49707543    -0.29200
C2043       C  0.91630518  0.76758166  0.50943278    -0.03500
C2044       C  0.93127694  0.79047832  0.51996327    -0.40000
H2045       H  0.91788851  0.72808725  0.48847073     0.12800
H2046       H  0.90864789  0.66465873  0.48749152     0.12400
H2047       H  0.88598758  0.65337540  0.52891810     0.11800
H2048       H  0.89585129  0.71732733  0.52990100     0.12100
H2049       H  0.89189748  0.60280729  0.51705220     0.14800
H2050       H  0.87091018  0.60294934  0.48832267     0.13600
H2051       H  0.91280964  0.77905485  0.50036585     0.11300
H2052       H  0.93735638  0.77994585  0.52878340     0.13300
C2053       C  0.75154981  0.38168524  0.43285473     0.19400
C2054       C  0.73699073  0.39978291  0.44081895    -0.18700
C2055       C  0.75573634  0.41805408  0.45242076    -0.11000
C2056       C  0.78986389  0.41901173  0.45621237     0.21600
C2057       C  0.80386456  0.39999450  0.44846401    -0.20400
C2058       C  0.78510333  0.38169372  0.43683598    -0.11200
C2059       C  0.81156953  0.43957573  0.46814141    -0.15400
C2060       C  0.81031808  0.46950106  0.47324858    -0.29200
C2061       C  0.73198229  0.36517942  0.42019746    -0.03500
C2062       C  0.73702278  0.34024320  0.41296166    -0.40000
H2063       H  0.71107351  0.39998964  0.43801211     0.12800
H2064       H  0.74328966  0.43122011  0.45837800     0.12400
H2065       H  0.83000306  0.40017674  0.45123652     0.11800
H2066       H  0.79773646  0.36873087  0.43088542     0.12100
H2067       H  0.83125589  0.43143213  0.47222667     0.14800
H2068       H  0.79378008  0.48010348  0.46832382     0.13600
H2069       H  0.71199896  0.37384114  0.41674426     0.11300
H2070       H  0.75493418  0.32924975  0.41645199     0.13300
C2071       C  0.97546567  0.43698623  0.53367282     0.19400
C2072       C  0.94305538  0.41775574  0.52549498    -0.18700
C2073       C  0.92561810  0.43663737  0.52007215    -0.11000
C2074       C  0.93995687  0.47527725  0.52286293     0.21600
C2075       C  0.97233629  0.49459312  0.53102255    -0.20400
C2076       C  0.98970870  0.47565429  0.53651233    -0.11200
C2077       C  0.92313878  0.49649054  0.51675223    -0.15400
C2078       C  0.88602833  0.47972939  0.51304000    -0.29200
C2079       C  0.99309722  0.41546120  0.53902744    -0.03500
C2080       C  0.02898674  0.43184484  0.54403832    -0.40000
H2081       H  0.93153717  0.38808063  0.52309760     0.12800
H2082       H  0.90160135  0.42103878  0.51342014     0.12400
H2083       H  0.98404404  0.52439178  0.53323744     0.11800
H2084       H  0.01390319  0.49151593  0.54304488     0.12100
H2085       H  0.94223601  0.52617937  0.51473799     0.14800
H2086       H  0.86693490  0.45009668  0.51509626     0.13600
H2087       H  0.97580053  0.38484962  0.53864426     0.11300
H2088       H  0.04644063  0.46236942  0.54458555     0.13300
C2089       C  0.68816274  0.56226739  0.88592192     0.19400
C2090       C  0.71705563  0.56132704  0.87849017    -0.18700
C2091       C  0.71065661  0.52768696  0.87247361    -0.11000
C2092       C  0.67535102  0.49422741  0.87397791     0.21600
C2093       C  0.64654395  0.49501378  0.88146859    -0.20400
C2094       C  0.65271391  0.52870852  0.88733256    -0.11200
C2095       C  0.66952261  0.45741054  0.86924242    -0.15400
C2096       C  0.68498369  0.45261785  0.85825877    -0.29200
C2097       C  0.69616253  0.59853972  0.89218028    -0.03500
C2098       C  0.66836119  0.60682144  0.89473952    -0.40000
H2099       H  0.74471236  0.58669583  0.87736941     0.12800
H2100       H  0.73380182  0.52758117  0.86708796     0.12400
H2101       H  0.61938530  0.46932499  0.88294411     0.11800
H2102       H  0.63009718  0.52803777  0.89326098     0.12100
H2103       H  0.65194024  0.43295669  0.87520983     0.14800
H2104       H  0.70029054  0.47544649  0.85147555     0.13600
H2105       H  0.72603924  0.62035466  0.89363539     0.11300
H2106       H  0.63877551  0.58676706  0.89202203     0.13300
C2107       C  0.82859295  0.81989708  0.95900241     0.19400
C2108       C  0.83616963  0.79836026  0.94994081    -0.18700
C2109       C  0.80923561  0.77665530  0.94022825    -0.11000
C2110       C  0.77366531  0.77554606  0.93950577     0.21600
C2111       C  0.76619663  0.79723548  0.94855733    -0.20400
C2112       C  0.79320921  0.81905959  0.95823604    -0.11200
C2113       C  0.74405772  0.75328018  0.92930049    -0.15400
C2114       C  0.74312107  0.72489681  0.92209110    -0.29200
C2115       C  0.85752361  0.84125862  0.96943387    -0.03500
C2116       C  0.86017908  0.87131983  0.97601360    -0.40000
H2117       H  0.86322768  0.79853640  0.95032223     0.12800
H2118       H  0.81679607  0.76134549  0.93326372     0.12400
H2119       H  0.73911097  0.79700498  0.94822538     0.11800
H2120       H  0.78582968  0.83446083  0.96523488     0.12100
H2121       H  0.72118475  0.75981601  0.92808276     0.14800
H2122       H  0.76372290  0.71576294  0.92406611     0.13600
H2123       H  0.87809544  0.83212594  0.97158761     0.11300
H2124       H  0.84132292  0.88224531  0.97356677     0.13300
C2125       C  0.45886713  0.74045901  0.75400088     0.19400
C2126       C  0.49211257  0.74229642  0.75923211    -0.18700
C2127       C  0.50985956  0.76398288  0.77054284    -0.11000
C2128       C  0.49428590  0.78392464  0.77700484     0.21600
C2129       C  0.46122197  0.78227181  0.77169515    -0.20400
C2130       C  0.44354225  0.76066604  0.76042339    -0.11200
C2131       C  0.51186635  0.80762584  0.78902662    -0.15400
C2132       C  0.53739522  0.80509647  0.79693511    -0.29200
C2133       C  0.44001532  0.71618636  0.74218537    -0.03500
C2134       C  0.41723742  0.72214031  0.73407871    -0.40000
H2135       H  0.50457442  0.72709692  0.75448907     0.12800
H2136       H  0.53590709  0.76529283  0.77404199     0.12400
H2137       H  0.44861446  0.79739568  0.77640208     0.11800
H2138       H  0.41735956  0.75925243  0.75700927     0.12100
H2139       H  0.50193115  0.82708469  0.79169721     0.14800
H2140       H  0.54487182  0.78339524  0.79502511     0.13600
H2141       H  0.44524571  0.69300186  0.74008495     0.11300
H2142       H  0.41329818  0.74624730  0.73578960     0.13300
C2143       C  0.59177732  0.05443368  0.83881756     0.19400
C2144       C  0.59063010  0.04045134  0.82612435    -0.18700
C2145       C  0.58701504  0.00491622  0.82405356    -0.11000
C2146       C  0.58376632  0.98215232  0.83471041     0.21600
C2147       C  0.58393017  0.99588727  0.84741111    -0.20400
C2148       C  0.58789197  0.03158928  0.84947002    -0.11200
C2149       C  0.58075493  0.94439547  0.83321433    -0.15400
C2150       C  0.57927737  0.92710055  0.82170054    -0.29200
C2151       C  0.59688551  0.09283116  0.84049410    -0.03500
C2152       C  0.61444457  0.11550022  0.85095868    -0.40000
H2153       H  0.59333593  0.05746385  0.81775380     0.12800
H2154       H  0.58716796  0.99598140  0.81408916     0.12400
H2155       H  0.58115641  0.97897093  0.85581638     0.11800
H2156       H  0.58752360  0.04100455  0.85938138     0.12100
H2157       H  0.57906021  0.92985881  0.84218133     0.14800
H2158       H  0.57841341  0.93965958  0.81257559     0.13600
H2159       H  0.58843609  0.10384811  0.83233112     0.11300
H2160       H  0.62529584  0.10579181  0.85881975     0.13300
C2161       C  0.64052683  0.76216619  0.87585813     0.19400
C2162       C  0.66382999  0.79596215  0.86932869    -0.18700
C2163       C  0.64882975  0.80728831  0.85914279    -0.11000
C2164       C  0.60986667  0.78519302  0.85538117     0.21600
C2165       C  0.58633406  0.75199498  0.86217872    -0.20400
C2166       C  0.60128886  0.74076147  0.87238723    -0.11200
C2167       C  0.59298871  0.79523125  0.84424952    -0.15400
C2168       C  0.60720252  0.83086977  0.84017998    -0.29200
C2169       C  0.65852318  0.74922797  0.88570691    -0.03500
C2170       C  0.64466864  0.71235113  0.88808706    -0.40000
H2171       H  0.69410393  0.81300969  0.87180742     0.12800
H2172       H  0.66819137  0.83268021  0.85400668     0.12400
H2173       H  0.55618833  0.73463755  0.85957674     0.11800
H2174       H  0.58197300  0.71524439  0.87747311     0.12100
H2175       H  0.56664953  0.77286134  0.83980216     0.14800
H2176       H  0.63127625  0.85379635  0.84542783     0.13600
H2177       H  0.68603679  0.77018896  0.88987881     0.11300
H2178       H  0.61893487  0.69150156  0.88292467     0.13300
C2179       C  0.16502250  0.37711024  0.68500471     0.19400
C2180       C  0.16684903  0.35128001  0.67624559    -0.18700
C2181       C  0.13499123  0.31531691  0.67414120    -0.11000
C2182       C  0.10036369  0.30444989  0.68072106     0.21600
C2183       C  0.09899519  0.32947000  0.68994337    -0.20400
C2184       C  0.13079654  0.36554553  0.69201138    -0.11200
C2185       C  0.06510055  0.26752973  0.67809464    -0.15400
C2186       C  0.05722725  0.24999193  0.66630017    -0.29200
C2187       C  0.19810063  0.41649951  0.68558256    -0.03500
C2188       C  0.20205383  0.44285920  0.69447756    -0.40000
H2189       H  0.19283914  0.35922911  0.67079030     0.12800
H2190       H  0.13759052  0.29622352  0.66732519     0.12400
H2191       H  0.07272437  0.32159284  0.69521499     0.11800
H2192       H  0.12758931  0.38440269  0.69872993     0.12100
H2193       H  0.04469650  0.25564558  0.68597981     0.14800
H2194       H  0.07786111  0.26277619  0.65849907     0.13600
H2195       H  0.21922953  0.42462639  0.67786601     0.11300
H2196       H  0.18212549  0.43555800  0.70249838     0.13300
C2197       C  0.96881188  0.09965924  0.61614343     0.19400
C2198       C  0.94352818  0.09201652  0.60558217    -0.18700
C2199       C  0.94888798  0.07805809  0.59366648    -0.11000
C2200       C  0.97945033  0.07077588  0.59210519     0.21600
C2201       C  0.00445013  0.07794414  0.60273887    -0.20400
C2202       C  0.99915200  0.09201759  0.61463827    -0.11200
C2203       C  0.98692631  0.05678112  0.57952614    -0.15400
C2204       C  0.96046397  0.03964530  0.56992314    -0.29200
C2205       C  0.96300680  0.11601169  0.62848222    -0.03500
C2206       C  0.99243351  0.13898134  0.63647864    -0.40000
H2207       H  0.92002487  0.09773648  0.60645283     0.12800
H2208       H  0.92948384  0.07391486  0.58567753     0.12400
H2209       H  0.02815512  0.07251351  0.60185440     0.11800
H2210       H  0.01868198  0.09653508  0.62264428     0.12100
H2211       H  0.01503947  0.05933232  0.57835483     0.14800
H2212       H  0.93130444  0.03409934  0.57121455     0.13600
H2213       H  0.93450837  0.11172992  0.63038866     0.11300
H2214       H  0.02137803  0.14595636  0.63379504     0.13300
C2215       C  0.47022202  0.85539317  0.69161651     0.19400
C2216       C  0.47162120  0.87581925  0.70296346    -0.18700
C2217       C  0.50354030  0.91124601  0.70576054    -0.11000
C2218       C  0.53509109  0.92706144  0.69725102     0.21600
C2219       C  0.53298965  0.90736945  0.68563515    -0.20400
C2220       C  0.50098295  0.87198430  0.68280792    -0.11200
C2221       C  0.57058395  0.96386719  0.70000826    -0.15400
C2222       C  0.58067472  0.98029600  0.71197821    -0.29200
C2223       C  0.43688246  0.81655017  0.68976656    -0.03500
C2224       C  0.43540475  0.79097795  0.68095160    -0.40000
H2225       H  0.44814212  0.86403467  0.70984245     0.12800
H2226       H  0.50302957  0.92590867  0.71456621     0.12400
H2227       H  0.55655411  0.91914566  0.67879253     0.11800
H2228       H  0.50089149  0.85799156  0.67376055     0.12100
H2229       H  0.58947476  0.97729831  0.69183328     0.14800
H2230       H  0.56182205  0.96724018  0.72017831     0.13600
H2231       H  0.41365958  0.80766615  0.69674246     0.11300
H2232       H  0.45831478  0.79839103  0.67400790     0.13300
C2233       C  0.66382681  0.17635562  0.78120471     0.19400
C2234       C  0.63401008  0.15840317  0.77195131    -0.18700
C2235       C  0.63914232  0.14248178  0.76048071    -0.11000
C2236       C  0.67412965  0.14333841  0.75809493     0.21600
C2237       C  0.70449535  0.16254585  0.76710174    -0.20400
C2238       C  0.69942241  0.17869361  0.77857617    -0.11200
C2239       C  0.67946570  0.12394736  0.74646802    -0.15400
C2240       C  0.64969009  0.09344690  0.74068144    -0.29200
C2241       C  0.65603006  0.19084141  0.79362062    -0.03500
C2242       C  0.68374980  0.21809504  0.80118977    -0.40000
H2243       H  0.60649956  0.15660054  0.77361737     0.12800
H2244       H  0.61553102  0.12954118  0.75353465     0.12400
H2245       H  0.73186306  0.16402109  0.76545990     0.11800
H2246       H  0.72305035  0.19178252  0.78550651     0.12100
H2247       H  0.70859145  0.13363882  0.74323508     0.14800
H2248       H  0.62130894  0.08266274  0.74482983     0.13600
H2249       H  0.62616261  0.17945638  0.79638938     0.11300
H2250       H  0.71353438  0.23135155  0.79817151     0.13300
C2251       C  0.78733435  0.10147128  0.69687658     0.19400
C2252       C  0.82219853  0.10746126  0.70223113    -0.18700
C2253       C  0.85366251  0.11595546  0.69420442    -0.11000
C2254       C  0.85100992  0.11897994  0.68060383     0.21600
C2255       C  0.81609533  0.11264693  0.67524199    -0.20400
C2256       C  0.78474895  0.10441129  0.68326141    -0.11200
C2257       C  0.88407429  0.12897377  0.67176000    -0.15400
C2258       C  0.92074916  0.15211855  0.67559439    -0.29200
C2259       C  0.75453053  0.09269079  0.70574615    -0.03500
C2260       C  0.71757966  0.07368480  0.70168188    -0.40000
H2261       H  0.82500107  0.10524025  0.71265726     0.12800
H2262       H  0.87983106  0.11972150  0.69865914     0.12400
H2263       H  0.81333957  0.11496102  0.66481975     0.11800
H2264       H  0.75889563  0.10115057  0.67873899     0.12100
H2265       H  0.87778768  0.11970083  0.66161014     0.14800
H2266       H  0.92622084  0.16402815  0.68545036     0.13600
H2267       H  0.76087186  0.09990078  0.71605420     0.11300
H2268       H  0.71104638  0.06323057  0.69166013     0.13300
loop_ 
_geom_bond_atom_site_label_1 
_geom_bond_atom_site_label_2 
_geom_bond_distance 
_geom_bond_site_symmetry_2 
_ccdc_geom_bond_type 
C1            C2   1.413       .  A
C1            C6   1.405       .  A
C1         C2240   1.492       .  S
C2            C3   1.412       .  A
C2            H7   1.080       .  S
C3            C4   1.403       .  A
C3         C2260   1.487       .  S
C4            C5   1.403       .  A
C4            H8   1.082       .  S
C5            C6   1.399       .  A
C5         C2222   1.487   1_545  S
C6            H9   1.085       .  S
C10          C11   1.412       .  A
C10          C15   1.402   1_655  A
C10        C2206   1.488       .  S
C11          C12   1.413       .  A
C11          H16   1.081       .  S
C12          C13   1.405       .  A
C12        C2258   1.490       .  S
C13          C14   1.405   1_655  A
C13          H17   1.081       .  S
C14          C15   1.399       .  A
C14        C2186   1.488       .  S
C15          H18   1.085       .  S
C19          C20   1.410       .  A
C19          C24   1.409       .  A
C19        C2132   1.494       .  S
C20          C21   1.403       .  A
C20          H25   1.082       .  S
C21          C22   1.404       .  A
C21        C2150   1.488       .  S
C22          C23   1.400       .  A
C22          H26   1.083       .  S
C23          C24   1.409       .  A
C23        C2168   1.486       .  S
C24          H27   1.083       .  S
C28          C29   1.407       .  A
C28          C33   1.413       .  A
C28        C2114   1.489       .  S
C29          C30   1.404       .  A
C29          H34   1.084       .  S
C30          C31   1.396       .  A
C30        C2098   1.478       .  S
C31          C32   1.399       .  A
C31          H35   1.085       .  S
C32          C33   1.408       .  A
C32        C2170   1.486       .  S
C33          H36   1.080       .  S
C37          C38   1.403       .  A
C37          C42   1.411       .  A
C37        C2042   1.484       .  S
C38          C39   1.398       .  A
C38          H43   1.085       .  S
C39          C40   1.401       .  A
C39        C2060   1.480       .  S
C40          C41   1.398       .  A
C40          H44   1.083       .  S
C41          C42   1.408       .  A
C41        C2078   1.477       .  S
C42          H45   1.081       .  S
C46          C47   1.398       .  A
C46          C51   1.408       .  A
C46        C2008   1.477       .  S
C47          C48   1.396       .  A
C47          H52   1.085       .  S
C48          C49   1.406       .  A
C48        C2080   1.484       .  S
C49          C50   1.407       .  A
C49          H53   1.083       .  S
C50          C51   1.415       .  A
C50        C2026   1.490       .  S
C51          H54   1.082       .  S
C55          C56   1.398       .  A
C55          C60   1.400       .  A
C55        C1954   1.479       .  S
C56          C57   1.404       .  A
C56          H61   1.085       .  S
C57          C58   1.411       .  A
C57        C1970   1.485       .  S
C58          C59   1.410       .  A
C58          H62   1.081       .  S
C59          C60   1.398       .  A
C59        C1990   1.480       .  S
C60          H63   1.083       .  S
C64          C65   1.397       .  A
C64          C69   1.407       .  A
C64        C1936   1.484       .  S
C65          C66   1.398       .  A
C65          H70   1.085       .  S
C66          C67   1.407       .  A
C66        C1988   1.480       .  S
C67          C68   1.410       .  A
C67          H71   1.081       .  S
C68          C69   1.409       .  A
C68        C1918   1.490       .  S
C69          H72   1.083       .  S
C73          C74   1.407   1_455  A
C73          C78   1.404       .  A
C73        C1862   1.483       .  S
C74          C75   1.405       .  A
C74          H79   1.084       .  S
C75          C76   1.407       .  A
C75        C1882   1.490       .  S
C76          C77   1.400   1_655  A
C76          H80   1.082       .  S
C77          C78   1.406       .  A
C77        C1898   1.481       .  S
C78          H81   1.084       .  S
C82          C83   1.410       .  A
C82          C87   1.403       .  A
C82        C1844   1.484       .  S
C83          C84   1.410       .  A
C83          H88   1.082       .  S
C84          C85   1.403       .  A
C84        C1900   1.484       .  S
C85          C86   1.405       .  A
C85          H89   1.080       .  S
C86          C87   1.400       .  A
C86        C1826   1.491       .  S
C87          H90   1.085       .  S
C91          C92   1.406       .  A
C91          C96   1.405       .  A
C91        C1772   1.488       .  S
C92          C93   1.400       .  A
C92          H97   1.083       .  S
C93          C94   1.409       .  A
C93        C1808   1.489       .  S
C94          C95   1.406       .  A
C94          H98   1.082       .  S
C95          C96   1.411       .  A
C95        C1792   1.491       .  S
C96          H99   1.083       .  S
C100        C101   1.405       .  A
C100        C105   1.407       .  A
C100       C1736   1.495       .  S
C101        C102   1.406   1_545  A
C101        H106   1.084       .  S
C102        C103   1.410   1_565  A
C102       C1756   1.491       .  S
C103        C104   1.408       .  A
C103        H107   1.080       .  S
C104        C105   1.404       .  A
C104       C1810   1.488       .  S
C105        H108   1.080       .  S
C109        C110   1.407       .  A
C109        C114   1.404       .  A
C109       C1702   1.484       .  S
C110        C111   1.405       .  A
C110        H115   1.084       .  S
C111        C112   1.405       .  A
C111       C1682   1.487       .  S
C112        C113   1.403       .  A
C112        H116   1.083       .  S
C113        C114   1.408       .  A
C113       C1718   1.487       .  S
C114        H117   1.082       .  S
C118        C119   1.412       .  A
C118        C123   1.406       .  A
C118       C1664   1.489       .  S
C119        C120   1.410       .  A
C119        H124   1.080       .  S
C120        C121   1.400       .  A
C120       C1720   1.486       .  S
C121        C122   1.402       .  A
C121        H125   1.083       .  S
C122        C123   1.401       .  A
C122       C1646   1.486   1_565  S
C123        H126   1.084   1_565  S
C127        C128   1.398       .  A
C127        C132   1.405       .  A
C127       C1610   1.485       .  S
C128        C129   1.400       .  A
C128        H133   1.085       .  S
C129        C130   1.409       .  A
C129       C1628   1.484       .  S
C130        C131   1.412       .  A
C130        H134   1.082       .  S
C131        C132   1.406       .  A
C131       C1594   1.488       .  S
C132        H135   1.082       .  S
C136        C137   1.403       .  A
C136        C141   1.396       .  A
C136       C1556   1.479       .  S
C137        C138   1.403       .  A
C137        H142   1.083       .  S
C138        C139   1.413       .  A
C138       C1630   1.487       .  S
C139        C140   1.410       .  A
C139        H143   1.081       .  S
C140        C141   1.398       .  A
C140       C1574   1.481       .  S
C141        H144   1.085       .  S
C145        C146   1.407       .  A
C145        C150   1.407       .  A
C145       C1520   1.489       .  S
C146        C147   1.397       .  A
C146        H151   1.083       .  S
C147        C148   1.403       .  A
C147       C1538   1.481       .  S
C148        C149   1.403       .  A
C148        H152   1.084       .  S
C149        C150   1.412       .  A
C149       C1504   1.488       .  S
C150        H153   1.082       .  S
C154        C155   1.404       .  A
C154        C159   1.402       .  A
C154       C1466   1.489       .  S
C155        C156   1.402       .  A
C155        H160   1.080       .  S
C156        C157   1.407       .  A
C156       C1540   1.481       .  S
C157        C158   1.408       .  A
C157        H161   1.082       .  S
C158        C159   1.403       .  A
C158       C1484   1.483       .  S
C159        H162   1.085       .  S
C163        C164   1.406       .  A
C163        C168   1.404       .  A
C163       C1414   1.483       .  S
C164        C165   1.398       .  A
C164        H169   1.083       .  S
C165        C166   1.406       .  A
C165       C1450   1.483       .  S
C166        C167   1.401       .  A
C166        H170   1.083   1_556  S
C167        C168   1.408       .  A
C167       C1430   1.484       .  S
C168        H171   1.083       .  S
C172        C173   1.413       .  A
C172        C177   1.407       .  A
C172       C1378   1.493       .  S
C173        C174   1.410       .  A
C173        H178   1.078       .  S
C174        C175   1.401       .  A
C174       C1448   1.485       .  S
C175        C176   1.396       .  A
C175        H179   1.085       .  S
C176        C177   1.404       .  A
C176       C1394   1.483       .  S
C177        H180   1.083       .  S
C181        C182   1.398       .  A
C181        C186   1.400       .  A
C181       C1324   1.478       .  S
C182        C183   1.398       .  A
C182        H187   1.085       .  S
C183        C184   1.407       .  A
C183       C1340   1.478       .  S
C184        C185   1.411       .  A
C184        H188   1.081       .  S
C185        C186   1.406       .  A
C185       C1360   1.486       .  S
C186        H189   1.084       .  S
C190        C191   1.400       .  A
C190        C195   1.406       .  A
C190       C1304   1.488       .  S
C191        C192   1.403       .  A
C191        H196   1.085       .  S
C192        C193   1.409       .  A
C192       C1286   1.486       .  S
C193        C194   1.411       .  A
C193        H197   1.081       .  S
C194        C195   1.404       .  A
C194       C1358   1.489       .  S
C195        H198   1.083       .  S
C199        C200   1.403       .  A
C199        C204   1.399       .  A
C199       C1234   1.480       .  S
C200        C201   1.401       .  A
C200        H205   1.082       .  S
C201        C202   1.407       .  A
C201       C1270   1.479       .  S
C202        C203   1.406       .  A
C202        H206   1.081       .  S
C203        C204   1.400       .  A
C203       C1252   1.480       .  S
C204        H207   1.085       .  S
C208        C209   1.407       .  A
C208        C213   1.409       .  A
C208       C1196   1.489       .  S
C209        C210   1.397       .  A
C209        H214   1.082   1_565  S
C210        C211   1.402       .  A
C210       C1268   1.481   1_565  S
C211        C212   1.401       .  A
C211        H215   1.083       .  S
C212        C213   1.411       .  A
C212       C1216   1.488       .  S
C213        H216   1.082       .  S
C217        C218   1.411       .  A
C217        C222   1.401       .  A
C217       C1160   1.483       .  S
C218        C219   1.412       .  A
C218        H223   1.082       .  S
C219        C220   1.404       .  A
C219       C1178   1.487       .  S
C220        C221   1.403       .  A
C220        H224   1.082       .  S
C221        C222   1.398       .  A
C221       C1142   1.484       .  S
C222        H225   1.085       .  S
C226        C227   1.406       .  A
C226        C231   1.407       .  A
C226       C1126   1.485       .  S
C227        C228   1.401       .  A
C227        H232   1.084   1_565  S
C228        C229   1.405       .  A
C228       C1106   1.485   1_565  S
C229        C230   1.401       .  A
C229        H233   1.083       .  S
C230        C231   1.410       .  A
C230       C1180   1.486       .  S
C231        H234   1.083       .  S
C235        C236   1.405       .  A
C235        C240   1.402       .  A
C235       C1072   1.486       .  S
C236        C237   1.399       .  A
C236        H241   1.081       .  S
C237        C238   1.407       .  A
C237       C1088   1.484       .  S
C238        C239   1.408       .  A
C238        H242   1.083       .  S
C239        C240   1.408       .  A
C239       C1052   1.490       .  S
C240        H243   1.081       .  S
C244        C245   1.403       .  A
C244        C249   1.404       .  A
C244       C1034   1.487       .  S
C245        C246   1.397   1_565  A
C245        H250   1.083   1_565  S
C246        C247   1.406   1_545  A
C246       C1090   1.483       .  S
C247        C248   1.407       .  A
C247        H251   1.083       .  S
C248        C249   1.415       .  A
C248       C1016   1.496       .  S
C249        H252   1.079       .  S
C253        C254   1.408       .  A
C253        C258   1.406       .  A
C253        C964   1.483       .  S
C254        C255   1.407       .  A
C254        H259   1.081       .  S
C255        C256   1.401       .  A
C255        C998   1.482       .  S
C256        C257   1.398       .  A
C256        H260   1.085       .  S
C257        C258   1.404       .  A
C257        C980   1.483       .  S
C258        H261   1.083       .  S
C262        C263   1.405       .  A
C262        C267   1.411       .  A
C262        C926   1.486       .  S
C263        C264   1.405       .  A
C263        H268   1.083       .  S
C264        C265   1.397       .  A
C264       C1000   1.483       .  S
C265        C266   1.406       .  A
C265        H269   1.084       .  S
C266        C267   1.404       .  A
C266        C944   1.488       .  S
C267        H270   1.083       .  S
C271        C272   1.407       .  A
C271        C276   1.401       .  A
C271        C874   1.490       .  S
C272        C273   1.408       .  A
C272        H277   1.081       .  S
C273        C274   1.413       .  A
C273        C910   1.492       .  S
C274        C275   1.410       .  A
C274        H278   1.080       .  S
C275        C276   1.401       .  A
C275        C892   1.491       .  S
C276        H279   1.085       .  S
C280        C281   1.408       .  A
C280        C285   1.402   1_655  A
C280        C856   1.492       .  S
C281        C282   1.408       .  A
C281        H286   1.082       .  S
C282        C283   1.413       .  A
C282        C908   1.494       .  S
C283        C284   1.410   1_655  A
C283        H287   1.079       .  S
C284        C285   1.403       .  A
C284        C836   1.494       .  S
C285        H288   1.085       .  S
C289        C290   1.408       .  A
C289        C294   1.403       .  A
C289        C800   1.488       .  S
C290        C291   1.407       .  A
C290        H295   1.082       .  S
C291        C292   1.404       .  A
C291        C820   1.481   1_556  S
C292        C293   1.408       .  A
C292        H296   1.081   1_556  S
C293        C294   1.403       .  A
C293        C782   1.491       .  S
C294        H297   1.084       .  S
C298        C299   1.403       .  A
C298        C303   1.406       .  A
C298        C746   1.488       .  S
C299        C300   1.405       .  A
C299        H304   1.084       .  S
C300        C301   1.410       .  A
C300        C766   1.492       .  S
C301        C302   1.407       .  A
C301        H305   1.080       .  S
C302        C303   1.402       .  A
C302        C818   1.483       .  S
C303        H306   1.082       .  S
C307        C308   1.398       .  A
C307        C312   1.410       .  A
C307        C694   1.489       .  S
C308        C309   1.399       .  A
C308        H313   1.085       .  S
C309        C310   1.408       .  A
C309        C730   1.486       .  S
C310        C311   1.414       .  A
C310        H314   1.079       .  S
C311        C312   1.414       .  A
C311        C710   1.500       .  S
C312        H315   1.083       .  S
C316        C317   1.407   1_655  A
C316        C321   1.396       .  A
C316        C658   1.484       .  S
C317        C318   1.406       .  A
C317        H322   1.082       .  S
C318        C319   1.411   1_455  A
C318        C728   1.487       .  S
C319        C320   1.408       .  A
C319        H323   1.080   1_655  S
C320        C321   1.399       .  A
C320        C674   1.484       .  S
C321        H324   1.085       .  S
O325        C336   1.295       .  A
O325       Eu361   2.479       .  S
O326        C337   1.293       .  A
O326       Eu360   2.473       .  S
O327        C338   1.290       .  A
O327       Eu333   2.447       .  S
O328        C339   1.289       .  A
O328       Eu333   2.451       .  S
O329        C339   1.293       .  A
O329       Eu363   2.462       .  S
O330        C338   1.287       .  A
O330       Eu362   2.440       .  S
O331        C337   1.291       .  A
O331       Eu333   2.450       .  S
O332        C336   1.289       .  A
O332       Eu333   2.451       .  S
Eu333       O343   2.355       .  S
Eu333       O335   2.347       .  S
Eu333       O334   2.345       .  S
Eu333       O341   2.355       .  S
O334       Eu363   2.350       .  S
O334       Eu360   2.343       .  S
O335       Eu361   2.351       .  S
O335       Eu362   2.354       .  S
C336       C2242   1.482       .  S
C337       C1684   1.482       .  S
C338       C1558   1.466       .  S
C339        C676   1.477       .  S
H340        O341   0.966       .  S
O341       Eu362   2.358       .  S
O341       Eu360   2.350       .  S
H342        O343   0.968       .  S
O343       Eu361   2.358       .  S
O343       Eu363   2.357       .  S
O344        C367   1.290       .  A
O344       Eu360   2.444       .  S
O345        C368   1.294       .  A
O345       Eu361   2.479       .  S
O346        C369   1.290       .  A
O346       Eu362   2.462       .  S
O347        C370   1.293       .  A
O347       Eu363   2.463       .  S
O348        C371   1.292       .  A
O348       Eu363   2.468       .  S
O349        C372   1.290       .  A
O349       Eu362   2.446       .  S
O350        C373   1.294       .  A
O350       Eu364   2.485       .  S
O351        C374   1.289       .  A
O351       Eu364   2.437       .  S
O352        C373   1.292       .  A
O352       Eu362   2.467       .  S
O353        C374   1.291       .  A
O353       Eu363   2.461       .  S
O354        C369   1.289       .  A
O354       Eu360   2.445       .  S
O355        C372   1.289       .  A
O355       Eu361   2.448       .  S
O356        C371   1.291       .  A
O356       Eu361   2.454       .  S
O357        C370   1.291       .  A
O357       Eu360   2.463       .  S
O358        C367   1.290       .  A
O358       Eu364   2.460       .  S
O359        C368   1.288       .  A
O359       Eu364   2.433       .  S
Eu360       O378   2.352       .  S
Eu360       O366   2.359       .  S
Eu361       O365   2.349       .  S
Eu361       O376   2.359       .  S
Eu362       O376   2.348       .  S
Eu362       O366   2.344       .  S
Eu363       O365   2.351       .  S
Eu363       O378   2.358       .  S
Eu364       O365   2.358       .  S
Eu364       O376   2.345       .  S
Eu364       O378   2.358       .  S
Eu364       O366   2.337       .  S
C367       C1952   1.472       .  S
C368       C1648   1.479       .  S
C369       C2096   1.465       .  S
C370        C802   1.479       .  S
C371       C2152   1.480       .  S
C372       C1070   1.469       .  S
C373        C712   1.493       .  S
C374       C1412   1.472       .  S
H375        O376   0.967       .  S
H377        O378   0.966       .  S
O379        C390   1.291       .  A
O379       Eu415   2.451   1_556  S
O380        C391   1.291       .  A
O380       Eu414   2.457       .  S
O381        C392   1.291       .  A
O381       Eu387   2.464       .  S
O382        C393   1.292       .  A
O382       Eu387   2.458   1_546  S
O383        C393   1.288   1_455  A
O383       Eu417   2.441   1_546  S
O384        C392   1.293       .  A
O384       Eu416   2.466       .  S
O385        C391   1.293       .  A
O385       Eu387   2.464   1_545  S
O386        C390   1.292       .  A
O386       Eu387   2.466   1_556  S
Eu387       O397   2.359       .  S
Eu387       O389   2.343       .  S
Eu387       O388   2.354   1_565  S
Eu387       O395   2.354       .  S
O388       Eu417   2.347   1_645  S
O388       Eu414   2.353       .  S
O389       Eu415   2.353       .  S
O389       Eu416   2.340       .  S
C390       C2116   1.479       .  S
C391        C784   1.478       .  S
C392       C1376   1.482       .  S
C393        C656   1.469       .  S
H394        O395   0.967       .  S
O395       Eu416   2.353       .  S
O395       Eu414   2.355   1_565  S
H396        O397   0.967   1_556  S
O397       Eu415   2.353       .  S
O397       Eu417   2.347   1_655  S
O398        C421   1.292       .  A
O398       Eu414   2.459   1_455  S
O399        C422   1.293   1_655  A
O399       Eu415   2.476       .  S
O400        C423   1.291       .  A
O400       Eu416   2.452       .  S
O401        C424   1.290       .  A
O401       Eu417   2.459   1_545  S
O402        C425   1.291       .  A
O402       Eu417   2.456   1_556  S
O403        C426   1.291       .  A
O403       Eu416   2.469       .  S
O404        C427   1.293       .  A
O404       Eu418   2.466   1_655  S
O405        C428   1.294       .  A
O405       Eu418   2.486       .  S
O406        C427   1.290       .  A
O406       Eu416   2.452       .  S
O407        C428   1.288       .  A
O407       Eu417   2.429       .  S
O408        C423   1.291   1_545  A
O408       Eu414   2.465       .  S
O409        C426   1.291       .  A
O409       Eu415   2.449       .  S
O410        C425   1.292   1_655  A
O410       Eu415   2.469   1_556  S
O411        C424   1.293       .  A
O411       Eu414   2.467   1_455  S
O412        C421   1.291   1_565  A
O412       Eu418   2.463       .  S
O413        C422   1.291       .  A
O413       Eu418   2.448       .  S
Eu414       O432   2.353   1_645  S
Eu414       O420   2.354   1_545  S
Eu415       O419   2.347   1_655  S
Eu415       O430   2.354       .  S
Eu416       O430   2.358       .  S
Eu416       O420   2.358       .  S
Eu417       O419   2.350       .  S
Eu417       O432   2.352       .  S
Eu418       O419   2.354       .  S
Eu418       O430   2.365   1_455  S
Eu418       O432   2.354       .  S
Eu418       O420   2.357   1_455  S
C421       C1774   1.479       .  S
C422        C764   1.480       .  S
C423       C1198   1.479       .  S
C424       C1916   1.482       .  S
C425       C1666   1.483       .  S
C426       C1972   1.477       .  S
C427        C854   1.477       .  S
C428       C1432   1.484       .  S
H429        O430   0.965       .  S
H431        O432   0.967   1_545  S
O433        C444   1.290       .  A
O433       Eu469   2.445       .  S
O434        C445   1.291       .  A
O434       Eu468   2.461       .  S
O435        C446   1.293       .  A
O435       Eu441   2.462       .  S
O436        C447   1.293       .  A
O436       Eu441   2.476       .  S
O437        C447   1.290       .  A
O437       Eu471   2.442       .  S
O438        C446   1.289       .  A
O438       Eu470   2.449       .  S
O439        C445   1.292       .  A
O439       Eu441   2.459       .  S
O440        C444   1.290       .  A
O440       Eu441   2.455       .  S
Eu441       O451   2.352       .  S
Eu441       O443   2.353       .  S
Eu441       O442   2.344       .  S
Eu441       O449   2.358       .  S
O442       Eu471   2.350       .  S
O442       Eu468   2.344       .  S
O443       Eu469   2.346       .  S
O443       Eu470   2.345       .  S
C444       C2062   1.473       .  S
C445       C1108   1.479       .  S
C446        C962   1.478       .  S
C447       C1288   1.482       .  S
H448        O449   0.966       .  S
O449       Eu470   2.361       .  S
O449       Eu468   2.355       .  S
H450        O451   0.967       .  S
O451       Eu469   2.358       .  S
O451       Eu471   2.352       .  S
O452        C475   1.291       .  A
O452       Eu468   2.452       .  S
O453        C476   1.291       .  A
O453       Eu469   2.461       .  S
O454        C477   1.290       .  A
O454       Eu470   2.458       .  S
O455        C478   1.294       .  A
O455       Eu471   2.468       .  S
O456        C479   1.294       .  A
O456       Eu471   2.477       .  S
O457        C480   1.291       .  A
O457       Eu470   2.457       .  S
O458        C481   1.289       .  A
O458       Eu472   2.451       .  S
O459        C482   1.292       .  A
O459       Eu472   2.459       .  S
O460        C481   1.291       .  A
O460       Eu470   2.451       .  S
O461        C482   1.290       .  A
O461       Eu471   2.458       .  S
O462        C477   1.290       .  A
O462       Eu468   2.449       .  S
O463        C480   1.291       .  A
O463       Eu469   2.461       .  S
O464        C479   1.291       .  A
O464       Eu469   2.455       .  S
O465        C478   1.287       .  A
O465       Eu468   2.440       .  S
O466        C475   1.291       .  A
O466       Eu472   2.466       .  S
O467        C476   1.290       .  A
O467       Eu472   2.446       .  S
Eu468       O486   2.356       .  S
Eu468       O474   2.347       .  S
Eu469       O473   2.352       .  S
Eu469       O484   2.348       .  S
Eu470       O484   2.354       .  S
Eu470       O474   2.350       .  S
Eu471       O473   2.347       .  S
Eu471       O486   2.355       .  S
Eu472       O473   2.356       .  S
Eu472       O484   2.354       .  S
Eu472       O486   2.345       .  S
Eu472       O474   2.351       .  S
C475       C1738   1.482       .  S
C476       C1144   1.476       .  S
C477       C1828   1.475       .  S
C478       C1232   1.471       .  S
C479       C1880   1.480       .  S
C480       C1522   1.478       .  S
C481       C1342   1.473       .  S
C482        C872   1.478       .  S
H483        O484   0.968       .  S
H485        O486   0.967       .  S
O487        C498   1.291       .  A
O487       Eu523   2.461       .  S
O488        C499   1.292       .  A
O488       Eu522   2.461       .  S
O489        C500   1.293       .  A
O489       Eu495   2.469       .  S
O490        C501   1.290       .  A
O490       Eu495   2.452       .  S
O491        C501   1.294       .  A
O491       Eu525   2.477       .  S
O492        C500   1.290       .  A
O492       Eu524   2.454       .  S
O493        C499   1.290       .  A
O493       Eu495   2.460       .  S
O494        C498   1.290       .  A
O494       Eu495   2.449       .  S
Eu495       O505   2.361       .  S
Eu495       O497   2.350       .  S
Eu495       O496   2.356       .  S
Eu495       O503   2.348       .  S
O496       Eu525   2.358       .  S
O496       Eu522   2.351       .  S
O497       Eu523   2.346       .  S
O497       Eu524   2.358       .  S
C498       C2224   1.476       .  S
C499       C1700   1.475       .  S
C500       C1018   1.477       .  S
C501       C2134   1.479       .  S
H502        O503   0.967       .  S
O503       Eu524   2.356       .  S
O503       Eu522   2.356       .  S
H504        O505   0.966       .  S
O505       Eu523   2.358       .  S
O505       Eu525   2.355       .  S
O506        C529   1.289       .  A
O506       Eu522   2.450       .  S
O507        C530   1.289       .  A
O507       Eu523   2.438       .  S
O508        C531   1.288       .  A
O508       Eu524   2.444       .  S
O509        C532   1.288       .  A
O509       Eu525   2.442       .  S
O510        C533   1.291       .  A
O510       Eu525   2.461       .  S
O511        C534   1.288       .  A
O511       Eu524   2.440       .  S
O512        C535   1.286       .  A
O512       Eu526   2.436       .  S
O513        C536   1.287       .  A
O513       Eu526   2.436       .  S
O514        C535   1.295       .  A
O514       Eu524   2.482       .  S
O515        C536   1.294       .  A
O515       Eu525   2.479       .  S
O516        C531   1.295       .  A
O516       Eu522   2.479       .  S
O517        C534   1.295       .  A
O517       Eu523   2.481       .  S
O518        C533   1.293       .  A
O518       Eu523   2.469       .  S
O519        C532   1.296       .  A
O519       Eu522   2.486       .  S
O520        C529   1.293       .  A
O520       Eu526   2.466       .  S
O521        C530   1.291       .  A
O521       Eu526   2.467       .  S
Eu522       O540   2.359       .  S
Eu522       O528   2.362       .  S
Eu523       O527   2.349       .  S
Eu523       O538   2.359       .  S
Eu524       O538   2.343       .  S
Eu524       O528   2.346       .  S
Eu525       O527   2.344       .  S
Eu525       O540   2.357       .  S
Eu526       O527   2.343       .  S
Eu526       O538   2.350       .  S
Eu526       O540   2.354       .  S
Eu526       O528   2.349       .  S
C529       C2188   1.477       .  S
C530       C1468   1.476       .  S
C531       C1576   1.475       .  S
C532        C692   1.478       .  S
C533       C1592   1.481       .  S
C534        C928   1.475       .  S
C535       C2006   1.477       .  S
C536       C1054   1.473       .  S
H537        O538   0.967       .  S
H539        O540   0.965       .  S
O541        C552   1.285       .  A
O541       Eu577   2.429       .  S
O542        C553   1.297       .  A
O542       Eu576   2.494       .  S
O543        C554   1.288       .  A
O543       Eu549   2.441       .  S
O544        C555   1.291       .  A
O544       Eu549   2.465       .  S
O545        C555   1.292       .  A
O545       Eu579   2.463       .  S
O546        C554   1.295       .  A
O546       Eu578   2.480       .  S
O547        C553   1.288       .  A
O547       Eu549   2.443       .  S
O548        C552   1.294       .  A
O548       Eu549   2.479       .  S
Eu549       O559   2.340       .  S
Eu549       O551   2.350       .  S
Eu549       O550   2.351       .  S
Eu549       O557   2.365       .  S
O550       Eu579   2.353       .  S
O550       Eu576   2.359       .  S
O551       Eu577   2.347       .  S
O551       Eu578   2.358       .  S
C552       C1934   1.471       .  S
C553       C1214   1.480       .  S
C554       C1396   1.474       .  S
C555        C890   1.481       .  S
H556        O557   0.965       .  S
O557       Eu578   2.354       .  S
O557       Eu576   2.355       .  S
H558        O559   0.967       .  S
O559       Eu577   2.362       .  S
O559       Eu579   2.356       .  S
O560        C583   1.298       .  A
O560       Eu576   2.497       .  S
O561        C584   1.289       .  A
O561       Eu577   2.454       .  S
O562        C585   1.291       .  A
O562       Eu578   2.461       .  S
O563        C586   1.294       .  A
O563       Eu579   2.472       .  S
O564        C587   1.296       .  A
O564       Eu579   2.489       .  S
O565        C588   1.290       .  A
O565       Eu578   2.444       .  S
O566        C589   1.292       .  A
O566       Eu580   2.465       .  S
O567        C590   1.293       .  A
O567       Eu580   2.465       .  S
O568        C589   1.295       .  A
O568       Eu578   2.481       .  S
O569        C590   1.292       .  A
O569       Eu579   2.464       .  S
O570        C585   1.291       .  A
O570       Eu576   2.451       .  S
O571        C588   1.291       .  A
O571       Eu577   2.465       .  S
O572        C587   1.287       .  A
O572       Eu577   2.439       .  S
O573        C586   1.289       .  A
O573       Eu576   2.447       .  S
O574        C583   1.285       .  A
O574       Eu580   2.428       .  S
O575        C584   1.289       .  A
O575       Eu580   2.446       .  S
Eu576       O594   2.357       .  S
Eu576       O582   2.356       .  S
Eu577       O581   2.345       .  S
Eu577       O592   2.342       .  S
Eu578       O592   2.362       .  S
Eu578       O582   2.355       .  S
Eu579       O581   2.356       .  S
Eu579       O594   2.358       .  S
Eu580       O581   2.344       .  S
Eu580       O592   2.348       .  S
Eu580       O594   2.353       .  S
Eu580       O582   2.356       .  S
C583       C1846   1.478       .  S
C584       C1250   1.474       .  S
C585       C1754   1.479       .  S
C586       C1162   1.476       .  S
C587       C1790   1.473       .  S
C588        C748   1.477       .  S
C589        C838   1.486       .  S
C590       C1306   1.480       .  S
H591        O592   0.967       .  S
H593        O594   0.967       .  S
O595        C606   1.293   1_455  A
O595       Eu631   2.468       .  S
O596        C607   1.289       .  A
O596       Eu630   2.452       .  S
O597        C608   1.295   1_565  A
O597       Eu603   2.480       .  S
O598        C609   1.287       .  A
O598       Eu603   2.440       .  S
O599        C609   1.294       .  A
O599       Eu633   2.474       .  S
O600        C608   1.287       .  A
O600       Eu632   2.442       .  S
O601        C607   1.293       .  A
O601       Eu603   2.462       .  S
O602        C606   1.291   1_565  A
O602       Eu603   2.461       .  S
Eu603       O613   2.359       .  S
Eu603       O605   2.350   1_565  S
Eu603       O604   2.354       .  S
Eu603       O611   2.346       .  S
O604       Eu633   2.352       .  S
O604       Eu630   2.354       .  S
O605       Eu631   2.361   1_655  S
O605       Eu632   2.349       .  S
C606       C2204   1.479       .  S
C607       C1486   1.478       .  S
C608        C982   1.477       .  S
C609       C1612   1.473       .  S
H610        O611   0.967       .  S
O611       Eu632   2.360   1_565  S
O611       Eu630   2.364       .  S
H612        O613   0.967       .  S
O613       Eu631   2.350   1_665  S
O613       Eu633   2.341       .  S
O614        C637   1.293   1_655  A
O614       Eu630   2.472       .  S
O615        C638   1.295       .  A
O615       Eu631   2.483       .  S
O616        C639   1.293       .  A
O616       Eu632   2.469   1_565  S
O617        C640   1.288       .  A
O617       Eu633   2.442       .  S
O618        C641   1.291       .  A
O618       Eu633   2.456   1_455  S
O619        C642   1.296       .  A
O619       Eu632   2.492   1_455  S
O620        C643   1.292       .  A
O620       Eu634   2.461   1_545  S
O621        C644   1.291       .  A
O621       Eu634   2.463       .  S
O622        C643   1.289       .  A
O622       Eu632   2.448   1_455  S
O623        C644   1.291       .  A
O623       Eu633   2.456   1_455  S
O624        C639   1.291       .  A
O624       Eu630   2.463       .  S
O625        C642   1.287       .  A
O625       Eu631   2.436       .  S
O626        C641   1.290   1_545  A
O626       Eu631   2.459       .  S
O627        C640   1.294       .  A
O627       Eu630   2.472       .  S
O628        C637   1.291       .  A
O628       Eu634   2.466       .  S
O629        C638   1.287       .  A
O629       Eu634   2.437   1_545  S
Eu630       O648   2.352   1_655  S
Eu630       O636   2.348   1_655  S
Eu631       O635   2.348   1_545  S
Eu631       O646   2.358       .  S
Eu632       O646   2.352   1_655  S
Eu632       O636   2.362   1_645  S
Eu633       O635   2.353   1_655  S
Eu633       O648   2.361   1_655  S
Eu634       O635   2.356       .  S
Eu634       O646   2.362   1_565  S
Eu634       O648   2.343       .  S
Eu634       O636   2.345       .  S
C637       C1864   1.484       .  S
C638       C1502   1.472       .  S
C639       C1124   1.476       .  S
C640       C2044   1.473       .  S
C641       C1036   1.478       .  S
C642       C2024   1.476       .  S
C643       C1322   1.470       .  S
C644        C946   1.475       .  S
H645        O646   0.966       .  S
H647        O648   0.968       .  S
C649        C650   1.401   1_655  A
C649        C654   1.410       .  A
C649        C657   1.485   1_655  S
C650        C651   1.393       .  A
C650        H659   1.083       .  S
C651        C652   1.406   1_455  A
C651        H660   1.082       .  S
C652        C653   1.402       .  A
C652        C655   1.481       .  S
C653        C654   1.399       .  A
C653        H661   1.084       .  S
C654        H662   1.081       .  S
C655        H663   1.087       .  S
C655        C656   1.344       .  D
C656        H664   1.086   1_655  S
C657        H665   1.085       .  S
C657        C658   1.343   1_455  D
C658        H666   1.085       .  S
C667        C668   1.402       .  A
C667        C672   1.410       .  A
C667        C675   1.486       .  S
C668        C669   1.394       .  A
C668        H677   1.084       .  S
C669        C670   1.406       .  A
C669        H678   1.083       .  S
C670        C671   1.401       .  A
C670        C673   1.483       .  S
C671        C672   1.400       .  A
C671        H679   1.083       .  S
C672        H680   1.081       .  S
C673        H681   1.084       .  S
C673        C674   1.345       .  D
C674        H682   1.087       .  S
C675        H683   1.087       .  S
C675        C676   1.345       .  D
C676        H684   1.084       .  S
C685        C686   1.404       .  A
C685        C690   1.410       .  A
C685        C693   1.494       .  S
C686        C687   1.401       .  A
C686        H695   1.083       .  S
C687        C688   1.409       .  A
C687        H696   1.082       .  S
C688        C689   1.403       .  A
C688        C691   1.491       .  S
C689        C690   1.400       .  A
C689        H697   1.083       .  S
C690        H698   1.081       .  S
C691        H699   1.087       .  S
C691        C692   1.345       .  D
C692        H700   1.085       .  S
C693        H701   1.086       .  S
C693        C694   1.346       .  D
C694        H702   1.085       .  S
C703        C704   1.406       .  A
C703        C708   1.408       .  A
C703        C711   1.499       .  S
C704        C705   1.401       .  A
C704        H713   1.083       .  S
C705        C706   1.408       .  A
C705        H714   1.080       .  S
C706        C707   1.409       .  A
C706        C709   1.501       .  S
C707        C708   1.405       .  A
C707        H715   1.083       .  S
C708        H716   1.081       .  S
C709        H717   1.084       .  S
C709        C710   1.356       .  D
C710        H718   1.083       .  S
C711        H719   1.087       .  S
C711        C712   1.354       .  D
C712        H720   1.084       .  S
C721        C722   1.403       .  A
C721        C726   1.408       .  A
C721        C729   1.487       .  S
C722        C723   1.400       .  A
C722        H731   1.083       .  S
C723        C724   1.407       .  A
C723        H732   1.082       .  S
C724        C725   1.402       .  A
C724        C727   1.484       .  S
C725        C726   1.397       .  A
C725        H733   1.083       .  S
C726        H734   1.082       .  S
C727        H735   1.086       .  S
C727        C728   1.346       .  D
C728        H736   1.086       .  S
C729        H737   1.086       .  S
C729        C730   1.346       .  D
C730        H738   1.086       .  S
C739        C740   1.403       .  A
C739        C744   1.406       .  A
C739        C747   1.483       .  S
C740        C741   1.397       .  A
C740        H749   1.084       .  S
C741        C742   1.407       .  A
C741        H750   1.081       .  S
C742        C743   1.404       .  A
C742        C745   1.487       .  S
C743        C744   1.398       .  A
C743        H751   1.083       .  S
C744        H752   1.081       .  S
C745        H753   1.085       .  S
C745        C746   1.348       .  D
C746        H754   1.085       .  S
C747        H755   1.087       .  S
C747        C748   1.348       .  D
C748        H756   1.085       .  S
C757        C758   1.405       .  A
C757        C762   1.408       .  A
C757        C765   1.490       .  S
C758        C759   1.400       .  A
C758        H767   1.083       .  S
C759        C760   1.407       .  A
C759        H768   1.081       .  S
C760        C761   1.404       .  A
C760        C763   1.489       .  S
C761        C762   1.398       .  A
C761        H769   1.084       .  S
C762        H770   1.081       .  S
C763        H771   1.088       .  S
C763        C764   1.349       .  D
C764        H772   1.084       .  S
C765        H773   1.083       .  S
C765        C766   1.350       .  D
C766        H774   1.085       .  S
C775        C776   1.404       .  A
C775        C780   1.408       .  A
C775        C783   1.489       .  S
C776        C777   1.400       .  A
C776        H785   1.083       .  S
C777        C778   1.408       .  A
C777        H786   1.082       .  S
C778        C779   1.402       .  A
C778        C781   1.487       .  S
C779        C780   1.397       .  A
C779        H787   1.083       .  S
C780        H788   1.081       .  S
C781        H789   1.084       .  S
C781        C782   1.347   1_554  D
C782        H790   1.086       .  S
C783        H791   1.087       .  S
C783        C784   1.347       .  D
C784        H792   1.085       .  S
C793        C794   1.402       .  A
C793        C798   1.406       .  A
C793        C801   1.485       .  S
C794        C795   1.399       .  A
C794        H803   1.083       .  S
C795        C796   1.410       .  A
C795        H804   1.081       .  S
C796        C797   1.405       .  A
C796        C799   1.492       .  S
C797        C798   1.400       .  A
C797        H805   1.083       .  S
C798        H806   1.083       .  S
C799        H807   1.085       .  S
C799        C800   1.348       .  D
C800        H808   1.084       .  S
C801        H809   1.087       .  S
C801        C802   1.346       .  D
C802        H810   1.086       .  S
C811        C812   1.403   1_655  A
C811        C816   1.406       .  A
C811        C819   1.482   1_554  S
C812        C813   1.400       .  A
C812        H821   1.083       .  S
C813        C814   1.407   1_455  A
C813        H822   1.083       .  S
C814        C815   1.402       .  A
C814        C817   1.482   1_655  S
C815        C816   1.398       .  A
C815        H823   1.083       .  S
C816        H824   1.083       .  S
C817        H825   1.086   1_455  S
C817        C818   1.345       .  D
C818        H826   1.087       .  S
C819        H827   1.087       .  S
C819        C820   1.344   1_556  D
C820        H828   1.087       .  S
C829        C830   1.404       .  A
C829        C834   1.411       .  A
C829        C837   1.495       .  S
C830        C831   1.401       .  A
C830        H839   1.083       .  S
C831        C832   1.408       .  A
C831        H840   1.082       .  S
C832        C833   1.403       .  A
C832        C835   1.492       .  S
C833        C834   1.403       .  A
C833        H841   1.083       .  S
C834        H842   1.081       .  S
C835        H843   1.084       .  S
C835        C836   1.350       .  D
C836        H844   1.086       .  S
C837        H845   1.087       .  S
C837        C838   1.348       .  D
C838        H846   1.085       .  S
C847        C848   1.406       .  A
C847        C852   1.411       .  A
C847        C855   1.496       .  S
C848        C849   1.400       .  A
C848        H857   1.083       .  S
C849        C850   1.407       .  A
C849        H858   1.082       .  S
C850        C851   1.401       .  A
C850        C853   1.485       .  S
C851        C852   1.398       .  A
C851        H859   1.084   1_655  S
C852        H860   1.079   1_655  S
C853        H861   1.087   1_655  S
C853        C854   1.345       .  D
C854        H862   1.086       .  S
C855        H863   1.085       .  S
C855        C856   1.350       .  D
C856        H864   1.083   1_655  S
C865        C866   1.403       .  A
C865        C870   1.408       .  A
C865        C873   1.489       .  S
C866        C867   1.400       .  A
C866        H875   1.083       .  S
C867        C868   1.409       .  A
C867        H876   1.081       .  S
C868        C869   1.402       .  A
C868        C871   1.487       .  S
C869        C870   1.397       .  A
C869        H877   1.084       .  S
C870        H878   1.081       .  S
C871        H879   1.087       .  S
C871        C872   1.346       .  D
C872        H880   1.084       .  S
C873        H881   1.084       .  S
C873        C874   1.348       .  D
C874        H882   1.085       .  S
C883        C884   1.404       .  A
C883        C888   1.408       .  A
C883        C891   1.491       .  S
C884        C885   1.402       .  A
C884        H893   1.083       .  S
C885        C886   1.409       .  A
C885        H894   1.080       .  S
C886        C887   1.405       .  A
C886        C889   1.493       .  S
C887        C888   1.398       .  A
C887        H895   1.084       .  S
C888        H896   1.082       .  S
C889        H897   1.087       .  S
C889        C890   1.349       .  D
C890        H898   1.084       .  S
C891        H899   1.085       .  S
C891        C892   1.348       .  D
C892        H900   1.086       .  S
C901        C902   1.405       .  A
C901        C906   1.407       .  A
C901        C909   1.493       .  S
C902        C903   1.403       .  A
C902        H911   1.083       .  S
C903        C904   1.409       .  A
C903        H912   1.081       .  S
C904        C905   1.404       .  A
C904        C907   1.493       .  S
C905        C906   1.399       .  A
C905        H913   1.083       .  S
C906        H914   1.081       .  S
C907        H915   1.085       .  S
C907        C908   1.350       .  D
C908        H916   1.085       .  S
C909        H917   1.085       .  S
C909        C910   1.350       .  D
C910        H918   1.085       .  S
C919        C920   1.404       .  A
C919        C924   1.407       .  A
C919        C927   1.487       .  S
C920        C921   1.401       .  A
C920        H929   1.083       .  S
C921        C922   1.408       .  A
C921        H930   1.082       .  S
C922        C923   1.402       .  A
C922        C925   1.485       .  S
C923        C924   1.397       .  A
C923        H931   1.083       .  S
C924        H932   1.082       .  S
C925        H933   1.086       .  S
C925        C926   1.345       .  D
C926        H934   1.086       .  S
C927        H935   1.087       .  S
C927        C928   1.345       .  D
C928        H936   1.086       .  S
C937        C938   1.406       .  A
C937        C942   1.404       .  A
C937        C945   1.485       .  S
C938        C939   1.406       .  A
C938        H947   1.083       .  S
C939        C940   1.410       .  A
C939        H948   1.081       .  S
C940        C941   1.402       .  A
C940        C943   1.486       .  S
C941        C942   1.390       .  A
C941        H949   1.084       .  S
C942        H950   1.082       .  S
C943        H951   1.087       .  S
C943        C944   1.348       .  D
C944        H952   1.084       .  S
C945        H953   1.087       .  S
C945        C946   1.348       .  D
C946        H954   1.086       .  S
C955        C956   1.405       .  A
C955        C960   1.406       .  A
C955        C963   1.488       .  S
C956        C957   1.402       .  A
C956        H965   1.083       .  S
C957        C958   1.410       .  A
C957        H966   1.080       .  S
C958        C959   1.402       .  A
C958        C961   1.488       .  S
C959        C960   1.393       .  A
C959        H967   1.084       .  S
C960        H968   1.080       .  S
C961        H969   1.087       .  S
C961        C962   1.345       .  D
C962        H970   1.083       .  S
C963        H971   1.085       .  S
C963        C964   1.349       .  D
C964        H972   1.084       .  S
C973        C974   1.402       .  A
C973        C978   1.409       .  A
C973        C981   1.489       .  S
C974        C975   1.400       .  A
C974        H983   1.083       .  S
C975        C976   1.411       .  A
C975        H984   1.080       .  S
C976        C977   1.403       .  A
C976        C979   1.490       .  S
C977        C978   1.397       .  A
C977        H985   1.084       .  S
C978        H986   1.082       .  S
C979        H987   1.086       .  S
C979        C980   1.346       .  D
C980        H988   1.084       .  S
C981        H989   1.087   1_545  S
C981        C982   1.344       .  D
C982        H990   1.086       .  S
C991        C992   1.402       .  A
C991        C996   1.408       .  A
C991        C999   1.484       .  S
C992        C993   1.396   1_565  A
C992       H1001   1.083   1_565  S
C993        C994   1.407       .  A
C993       H1002   1.082       .  S
C994        C995   1.403   1_545  A
C994        C997   1.485       .  S
C995        C996   1.399       .  A
C995       H1003   1.083       .  S
C996       H1004   1.082       .  S
C997       H1005   1.086       .  S
C997        C998   1.346       .  D
C998       H1006   1.086       .  S
C999       H1007   1.086       .  S
C999       C1000   1.344       .  D
C1000      H1008   1.086       .  S
C1009      C1010   1.404       .  A
C1009      C1014   1.408       .  A
C1009      C1017   1.490       .  S
C1010      C1011   1.403       .  A
C1010      H1019   1.083       .  S
C1011      C1012   1.410       .  A
C1011      H1020   1.081       .  S
C1012      C1013   1.402       .  A
C1012      C1015   1.490       .  S
C1013      C1014   1.395       .  A
C1013      H1021   1.084       .  S
C1014      H1022   1.081       .  S
C1015      H1023   1.081       .  S
C1015      C1016   1.349       .  D
C1016      H1024   1.085       .  S
C1017      H1025   1.087       .  S
C1017      C1018   1.347       .  D
C1018      H1026   1.085       .  S
C1027      C1028   1.404       .  A
C1027      C1032   1.406       .  A
C1027      C1035   1.487       .  S
C1028      C1029   1.399       .  A
C1028      H1037   1.083       .  S
C1029      C1030   1.407       .  A
C1029      H1038   1.080       .  S
C1030      C1031   1.405       .  A
C1030      C1033   1.487       .  S
C1031      C1032   1.397       .  A
C1031      H1039   1.084   1_565  S
C1032      H1040   1.081   1_565  S
C1033      H1041   1.086       .  S
C1033      C1034   1.349       .  D
C1034      H1042   1.084       .  S
C1035      H1043   1.087       .  S
C1035      C1036   1.348       .  D
C1036      H1044   1.085   1_565  S
C1045      C1046   1.408       .  A
C1045      C1050   1.402       .  A
C1045      C1053   1.488       .  S
C1046      C1047   1.396       .  A
C1046      H1055   1.081       .  S
C1047      C1048   1.407       .  A
C1047      H1056   1.080       .  S
C1048      C1049   1.407       .  A
C1048      C1051   1.492       .  S
C1049      C1050   1.401       .  A
C1049      H1057   1.083       .  S
C1050      H1058   1.083       .  S
C1051      H1059   1.084       .  S
C1051      C1052   1.352       .  D
C1052      H1060   1.083       .  S
C1053      H1061   1.087       .  S
C1053      C1054   1.344       .  D
C1054      H1062   1.085       .  S
C1063      C1064   1.403       .  A
C1063      C1068   1.408       .  A
C1063      C1071   1.483       .  S
C1064      C1065   1.394       .  A
C1064      H1073   1.083       .  S
C1065      C1066   1.405       .  A
C1065      H1074   1.082       .  S
C1066      C1067   1.401       .  A
C1066      C1069   1.476       .  S
C1067      C1068   1.396       .  A
C1067      H1075   1.084       .  S
C1068      H1076   1.080       .  S
C1069      H1077   1.087       .  S
C1069      C1070   1.344       .  D
C1070      H1078   1.086       .  S
C1071      H1079   1.084       .  S
C1071      C1072   1.347       .  D
C1072      H1080   1.084       .  S
C1081      C1082   1.403       .  A
C1081      C1086   1.408       .  A
C1081      C1089   1.486       .  S
C1082      C1083   1.398       .  A
C1082      H1091   1.083       .  S
C1083      C1084   1.408       .  A
C1083      H1092   1.082       .  S
C1084      C1085   1.402       .  A
C1084      C1087   1.486       .  S
C1085      C1086   1.398       .  A
C1085      H1093   1.083       .  S
C1086      H1094   1.081       .  S
C1087      H1095   1.086       .  S
C1087      C1088   1.345       .  D
C1088      H1096   1.086       .  S
C1089      H1097   1.086       .  S
C1089      C1090   1.345       .  D
C1090      H1098   1.085       .  S
C1099      C1100   1.405       .  A
C1099      C1104   1.408       .  A
C1099      C1107   1.490       .  S
C1100      C1101   1.399       .  A
C1100      H1109   1.083       .  S
C1101      C1102   1.407       .  A
C1101      H1110   1.081       .  S
C1102      C1103   1.402       .  A
C1102      C1105   1.485       .  S
C1103      C1104   1.397       .  A
C1103      H1111   1.084       .  S
C1104      H1112   1.080       .  S
C1105      H1113   1.085   1_545  S
C1105      C1106   1.347       .  D
C1106      H1114   1.085       .  S
C1107      H1115   1.087       .  S
C1107      C1108   1.348       .  D
C1108      H1116   1.084       .  S
C1117      C1118   1.403       .  A
C1117      C1122   1.407       .  A
C1117      C1125   1.482       .  S
C1118      C1119   1.398       .  A
C1118      H1127   1.083       .  S
C1119      C1120   1.405       .  A
C1119      H1128   1.083       .  S
C1120      C1121   1.403       .  A
C1120      C1123   1.482       .  S
C1121      C1122   1.402       .  A
C1121      H1129   1.083       .  S
C1122      H1130   1.083       .  S
C1123      H1131   1.087   1_565  S
C1123      C1124   1.343       .  D
C1124      H1132   1.087       .  S
C1125      H1133   1.087       .  S
C1125      C1126   1.347       .  D
C1126      H1134   1.086       .  S
C1135      C1136   1.404       .  A
C1135      C1140   1.410       .  A
C1135      C1143   1.487       .  S
C1136      C1137   1.395       .  A
C1136      H1145   1.084       .  S
C1137      C1138   1.405       .  A
C1137      H1146   1.082       .  S
C1138      C1139   1.401       .  A
C1138      C1141   1.482       .  S
C1139      C1140   1.398       .  A
C1139      H1147   1.084       .  S
C1140      H1148   1.079       .  S
C1141      H1149   1.084       .  S
C1141      C1142   1.347       .  D
C1142      H1150   1.086       .  S
C1143      H1151   1.087       .  S
C1143      C1144   1.347       .  D
C1144      H1152   1.083       .  S
C1153      C1154   1.400       .  A
C1153      C1158   1.408       .  A
C1153      C1161   1.486       .  S
C1154      C1155   1.397       .  A
C1154      H1163   1.084       .  S
C1155      C1156   1.411       .  A
C1155      H1164   1.079       .  S
C1156      C1157   1.404       .  A
C1156      C1159   1.494       .  S
C1157      C1158   1.400       .  A
C1157      H1165   1.083       .  S
C1158      H1166   1.082       .  S
C1159      H1167   1.086       .  S
C1159      C1160   1.346       .  D
C1160      H1168   1.083       .  S
C1161      H1169   1.087       .  S
C1161      C1162   1.344       .  D
C1162      H1170   1.085       .  S
C1171      C1172   1.402       .  A
C1171      C1176   1.409       .  A
C1171      C1179   1.490       .  S
C1172      C1173   1.397       .  A
C1172      H1181   1.083       .  S
C1173      C1174   1.409       .  A
C1173      H1182   1.081       .  S
C1174      C1175   1.404       .  A
C1174      C1177   1.493       .  S
C1175      C1176   1.402       .  A
C1175      H1183   1.083       .  S
C1176      H1184   1.081       .  S
C1177      H1185   1.086       .  S
C1177      C1178   1.347       .  D
C1178      H1186   1.085       .  S
C1179      H1187   1.087       .  S
C1179      C1180   1.345       .  D
C1180      H1188   1.085       .  S
C1189      C1190   1.405       .  A
C1189      C1194   1.407       .  A
C1189      C1197   1.487       .  S
C1190      C1191   1.397       .  A
C1190      H1199   1.083       .  S
C1191      C1192   1.405       .  A
C1191      H1200   1.081       .  S
C1192      C1193   1.404       .  A
C1192      C1195   1.483       .  S
C1193      C1194   1.398       .  A
C1193      H1201   1.084   1_565  S
C1194      H1202   1.081   1_565  S
C1195      H1203   1.084   1_565  S
C1195      C1196   1.350       .  D
C1196      H1204   1.085       .  S
C1197      H1205   1.087       .  S
C1197      C1198   1.348       .  D
C1198      H1206   1.084   1_565  S
C1207      C1208   1.404       .  A
C1207      C1212   1.410       .  A
C1207      C1215   1.492       .  S
C1208      C1209   1.400       .  A
C1208      H1217   1.083       .  S
C1209      C1210   1.408       .  A
C1209      H1218   1.082       .  S
C1210      C1211   1.402       .  A
C1210      C1213   1.490       .  S
C1211      C1212   1.400       .  A
C1211      H1219   1.083       .  S
C1212      H1220   1.081       .  S
C1213      H1221   1.087       .  S
C1213      C1214   1.345       .  D
C1214      H1222   1.086       .  S
C1215      H1223   1.085       .  S
C1215      C1216   1.346       .  D
C1216      H1224   1.085       .  S
C1225      C1226   1.403       .  A
C1225      C1230   1.407       .  A
C1225      C1233   1.482       .  S
C1226      C1227   1.398       .  A
C1226      H1235   1.084       .  S
C1227      C1228   1.407       .  A
C1227      H1236   1.082       .  S
C1228      C1229   1.399       .  A
C1228      C1231   1.478       .  S
C1229      C1230   1.393       .  A
C1229      H1237   1.084       .  S
C1230      H1238   1.081       .  S
C1231      H1239   1.087       .  S
C1231      C1232   1.341       .  D
C1232      H1240   1.086       .  S
C1233      H1241   1.085       .  S
C1233      C1234   1.346       .  D
C1234      H1242   1.085       .  S
C1243      C1244   1.403       .  A
C1243      C1248   1.407       .  A
C1243      C1251   1.482       .  S
C1244      C1245   1.399       .  A
C1244      H1253   1.083       .  S
C1245      C1246   1.405       .  A
C1245      H1254   1.082       .  S
C1246      C1247   1.401       .  A
C1246      C1249   1.477       .  S
C1247      C1248   1.394       .  A
C1247      H1255   1.084       .  S
C1248      H1256   1.082       .  S
C1249      H1257   1.087       .  S
C1249      C1250   1.345       .  D
C1250      H1258   1.086       .  S
C1251      H1259   1.086   1_455  S
C1251      C1252   1.345   1_455  D
C1252      H1260   1.086   1_655  S
C1261      C1262   1.402       .  A
C1261      C1266   1.407       .  A
C1261      C1269   1.480       .  S
C1262      C1263   1.396       .  A
C1262      H1271   1.083       .  S
C1263      C1264   1.406       .  A
C1263      H1272   1.082       .  S
C1264      C1265   1.401       .  A
C1264      C1267   1.478       .  S
C1265      C1266   1.394       .  A
C1265      H1273   1.084       .  S
C1266      H1274   1.082       .  S
C1267      H1275   1.085       .  S
C1267      C1268   1.344       .  D
C1268      H1276   1.086       .  S
C1269      H1277   1.086       .  S
C1269      C1270   1.344       .  D
C1270      H1278   1.085       .  S
C1279      C1280   1.405       .  A
C1279      C1284   1.409       .  A
C1279      C1287   1.491       .  S
C1280      C1281   1.396       .  A
C1280      H1289   1.084       .  S
C1281      C1282   1.407       .  A
C1281      H1290   1.082       .  S
C1282      C1283   1.403       .  A
C1282      C1285   1.489       .  S
C1283      C1284   1.401       .  A
C1283      H1291   1.083       .  S
C1284      H1292   1.079       .  S
C1285      H1293   1.085   1_655  S
C1285      C1286   1.347   1_655  D
C1286      H1294   1.085   1_455  S
C1287      H1295   1.087       .  S
C1287      C1288   1.351       .  D
C1288      H1296   1.083       .  S
C1297      C1298   1.404       .  A
C1297      C1302   1.407       .  A
C1297      C1305   1.490       .  S
C1298      C1299   1.401       .  A
C1298      H1307   1.083       .  S
C1299      C1300   1.410       .  A
C1299      H1308   1.080       .  S
C1300      C1301   1.404       .  A
C1300      C1303   1.491       .  S
C1301      C1302   1.397       .  A
C1301      H1309   1.083       .  S
C1302      H1310   1.081       .  S
C1303      H1311   1.085       .  S
C1303      C1304   1.348       .  D
C1304      H1312   1.084       .  S
C1305      H1313   1.087       .  S
C1305      C1306   1.349       .  D
C1306      H1314   1.085       .  S
C1315      C1316   1.401       .  A
C1315      C1320   1.404       .  A
C1315      C1323   1.473       .  S
C1316      C1317   1.396       .  A
C1316      H1325   1.083       .  S
C1317      C1318   1.405       .  A
C1317      H1326   1.083       .  S
C1318      C1319   1.402       .  A
C1318      C1321   1.476       .  S
C1319      C1320   1.398       .  A
C1319      H1327   1.083       .  S
C1320      H1328   1.083       .  S
C1321      H1329   1.087       .  S
C1321      C1322   1.342       .  D
C1322      H1330   1.087       .  S
C1323      H1331   1.087       .  S
C1323      C1324   1.344       .  D
C1324      H1332   1.087       .  S
C1333      C1334   1.402       .  A
C1333      C1338   1.411       .  A
C1333      C1341   1.487       .  S
C1334      C1335   1.393       .  A
C1334      H1343   1.084       .  S
C1335      C1336   1.407       .  A
C1335      H1344   1.082       .  S
C1336      C1337   1.400       .  A
C1336      C1339   1.482       .  S
C1337      C1338   1.398       .  A
C1337      H1345   1.083       .  S
C1338      H1346   1.079       .  S
C1339      H1347   1.086       .  S
C1339      C1340   1.343       .  D
C1340      H1348   1.086       .  S
C1341      H1349   1.087       .  S
C1341      C1342   1.345       .  D
C1342      H1350   1.082       .  S
C1351      C1352   1.404       .  A
C1351      C1356   1.408       .  A
C1351      C1359   1.489       .  S
C1352      C1353   1.399       .  A
C1352      H1361   1.084       .  S
C1353      C1354   1.409       .  A
C1353      H1362   1.081       .  S
C1354      C1355   1.404       .  A
C1354      C1357   1.491       .  S
C1355      C1356   1.399       .  A
C1355      H1363   1.083       .  S
C1356      H1364   1.081       .  S
C1357      H1365   1.085       .  S
C1357      C1358   1.348       .  D
C1358      H1366   1.084       .  S
C1359      H1367   1.086       .  S
C1359      C1360   1.348       .  D
C1360      H1368   1.084       .  S
C1369      C1370   1.405       .  A
C1369      C1374   1.410       .  A
C1369      C1377   1.495       .  S
C1370      C1371   1.400       .  A
C1370      H1379   1.083       .  S
C1371      C1372   1.407       .  A
C1371      H1380   1.081       .  S
C1372      C1373   1.403       .  A
C1372      C1375   1.491       .  S
C1373      C1374   1.400       .  A
C1373      H1381   1.084       .  S
C1374      H1382   1.080       .  S
C1375      H1383   1.087       .  S
C1375      C1376   1.348       .  D
C1376      H1384   1.085       .  S
C1377      H1385   1.084       .  S
C1377      C1378   1.350       .  D
C1378      H1386   1.083       .  S
C1387      C1388   1.403       .  A
C1387      C1392   1.408       .  A
C1387      C1395   1.488       .  S
C1388      C1389   1.400       .  A
C1388      H1397   1.083       .  S
C1389      C1390   1.408       .  A
C1389      H1398   1.082       .  S
C1390      C1391   1.402       .  A
C1390      C1393   1.486       .  S
C1391      C1392   1.396       .  A
C1391      H1399   1.084       .  S
C1392      H1400   1.082       .  S
C1393      H1401   1.087       .  S
C1393      C1394   1.344       .  D
C1394      H1402   1.086       .  S
C1395      H1403   1.087       .  S
C1395      C1396   1.344       .  D
C1396      H1404   1.086       .  S
C1405      C1406   1.405       .  A
C1405      C1410   1.408       .  A
C1405      C1413   1.486       .  S
C1406      C1407   1.395       .  A
C1406      H1415   1.083       .  S
C1407      C1408   1.404       .  A
C1407      H1416   1.081       .  S
C1408      C1409   1.402       .  A
C1408      C1411   1.479       .  S
C1409      C1410   1.396       .  A
C1409      H1417   1.084       .  S
C1410      H1418   1.079       .  S
C1411      H1419   1.087       .  S
C1411      C1412   1.347       .  D
C1412      H1420   1.084       .  S
C1413      H1421   1.086       .  S
C1413      C1414   1.348       .  D
C1414      H1422   1.083       .  S
C1423      C1424   1.407       .  A
C1423      C1428   1.405   1_554  A
C1423      C1431   1.487       .  S
C1424      C1425   1.402       .  A
C1424      H1433   1.080   1_545  S
C1425      C1426   1.410   1_554  A
C1425      H1434   1.081   1_545  S
C1426      C1427   1.400       .  A
C1426      C1429   1.485       .  S
C1427      C1428   1.394       .  A
C1427      H1435   1.084       .  S
C1428      H1436   1.084       .  S
C1429      H1437   1.086       .  S
C1429      C1430   1.345       .  D
C1430      H1438   1.085   1_545  S
C1431      H1439   1.087       .  S
C1431      C1432   1.352   1_545  D
C1432      H1440   1.083       .  S
C1441      C1442   1.401       .  A
C1441      C1446   1.411       .  A
C1441      C1449   1.485       .  S
C1442      C1443   1.392       .  A
C1442      H1451   1.084       .  S
C1443      C1444   1.406       .  A
C1443      H1452   1.082       .  S
C1444      C1445   1.403       .  A
C1444      C1447   1.486       .  S
C1445      C1446   1.401       .  A
C1445      H1453   1.083   1_565  S
C1446      H1454   1.080   1_565  S
C1447      H1455   1.085       .  S
C1447      C1448   1.346       .  D
C1448      H1456   1.086       .  S
C1449      H1457   1.086       .  S
C1449      C1450   1.344   1_564  D
C1450      H1458   1.084       .  S
C1459      C1460   1.401       .  A
C1459      C1464   1.405       .  A
C1459      C1467   1.478       .  S
C1460      C1461   1.394       .  A
C1460      H1469   1.084       .  S
C1461      C1462   1.408       .  A
C1461      H1470   1.080       .  S
C1462      C1463   1.406       .  A
C1462      C1465   1.487       .  S
C1463      C1464   1.399       .  A
C1463      H1471   1.083       .  S
C1464      H1472   1.082       .  S
C1465      H1473   1.082       .  S
C1465      C1466   1.350       .  D
C1466      H1474   1.083       .  S
C1467      H1475   1.087       .  S
C1467      C1468   1.346       .  D
C1468      H1476   1.085       .  S
C1477      C1478   1.403       .  A
C1477      C1482   1.410       .  A
C1477      C1485   1.489       .  S
C1478      C1479   1.395       .  A
C1478      H1487   1.084       .  S
C1479      C1480   1.407       .  A
C1479      H1488   1.081       .  S
C1480      C1481   1.403       .  A
C1480      C1483   1.488       .  S
C1481      C1482   1.401       .  A
C1481      H1489   1.083       .  S
C1482      H1490   1.080       .  S
C1483      H1491   1.086       .  S
C1483      C1484   1.347       .  D
C1484      H1492   1.085       .  S
C1485      H1493   1.087       .  S
C1485      C1486   1.347       .  D
C1486      H1494   1.083       .  S
C1495      C1496   1.402       .  A
C1495      C1500   1.410       .  A
C1495      C1503   1.488       .  S
C1496      C1497   1.397       .  A
C1496      H1505   1.083       .  S
C1497      C1498   1.408       .  A
C1497      H1506   1.082       .  S
C1498      C1499   1.403       .  A
C1498      C1501   1.488       .  S
C1499      C1500   1.401       .  A
C1499      H1507   1.083       .  S
C1500      H1508   1.081       .  S
C1501      H1509   1.087       .  S
C1501      C1502   1.344       .  D
C1502      H1510   1.086       .  S
C1503      H1511   1.085       .  S
C1503      C1504   1.345       .  D
C1504      H1512   1.085       .  S
C1513      C1514   1.405       .  A
C1513      C1518   1.405       .  A
C1513      C1521   1.487       .  S
C1514      C1515   1.402       .  A
C1514      H1523   1.083       .  S
C1515      C1516   1.409       .  A
C1515      H1524   1.080       .  S
C1516      C1517   1.405       .  A
C1516      C1519   1.489       .  S
C1517      C1518   1.395       .  A
C1517      H1525   1.084       .  S
C1518      H1526   1.082       .  S
C1519      H1527   1.086       .  S
C1519      C1520   1.350       .  D
C1520      H1528   1.083       .  S
C1521      H1529   1.087       .  S
C1521      C1522   1.348       .  D
C1522      H1530   1.085       .  S
C1531      C1532   1.403       .  A
C1531      C1536   1.407       .  A
C1531      C1539   1.485       .  S
C1532      C1533   1.400       .  A
C1532      H1541   1.083       .  S
C1533      C1534   1.408       .  A
C1533      H1542   1.082       .  S
C1534      C1535   1.400       .  A
C1534      C1537   1.481       .  S
C1535      C1536   1.395       .  A
C1535      H1543   1.083       .  S
C1536      H1544   1.082       .  S
C1537      H1545   1.087       .  S
C1537      C1538   1.343       .  D
C1538      H1546   1.086       .  S
C1539      H1547   1.086       .  S
C1539      C1540   1.345       .  D
C1540      H1548   1.086       .  S
C1549      C1550   1.400       .  A
C1549      C1554   1.406       .  A
C1549      C1557   1.475       .  S
C1550      C1551   1.395       .  A
C1550      H1559   1.084       .  S
C1551      C1552   1.407       .  A
C1551      H1560   1.082       .  S
C1552      C1553   1.400       .  A
C1552      C1555   1.478       .  S
C1553      C1554   1.393       .  A
C1553      H1561   1.083       .  S
C1554      H1562   1.082       .  S
C1555      H1563   1.085       .  S
C1555      C1556   1.343       .  D
C1556      H1564   1.086       .  S
C1557      H1565   1.087       .  S
C1557      C1558   1.342       .  D
C1558      H1566   1.086       .  S
C1567      C1568   1.403       .  A
C1567      C1572   1.409       .  A
C1567      C1575   1.488       .  S
C1568      C1569   1.397       .  A
C1568      H1577   1.084       .  S
C1569      C1570   1.408       .  A
C1569      H1578   1.082       .  S
C1570      C1571   1.402       .  A
C1570      C1573   1.486   1_455  S
C1571      C1572   1.399       .  A
C1571      H1579   1.083       .  S
C1572      H1580   1.081       .  S
C1573      H1581   1.086       .  S
C1573      C1574   1.343       .  D
C1574      H1582   1.086       .  S
C1575      H1583   1.087       .  S
C1575      C1576   1.344       .  D
C1576      H1584   1.085       .  S
C1585      C1586   1.404       .  A
C1585      C1590   1.409       .  A
C1585      C1593   1.493       .  S
C1586      C1587   1.401       .  A
C1586      H1595   1.083       .  S
C1587      C1588   1.408       .  A
C1587      H1596   1.082       .  S
C1588      C1589   1.403       .  A
C1588      C1591   1.491       .  S
C1589      C1590   1.400       .  A
C1589      H1597   1.083       .  S
C1590      H1598   1.081       .  S
C1591      H1599   1.087       .  S
C1591      C1592   1.348       .  D
C1592      H1600   1.085       .  S
C1593      H1601   1.086       .  S
C1593      C1594   1.348       .  D
C1594      H1602   1.084       .  S
C1603      C1604   1.401       .  A
C1603      C1608   1.409       .  A
C1603      C1611   1.485       .  S
C1604      C1605   1.398       .  A
C1604      H1613   1.083       .  S
C1605      C1606   1.409       .  A
C1605      H1614   1.082       .  S
C1606      C1607   1.401       .  A
C1606      C1609   1.485       .  S
C1607      C1608   1.397       .  A
C1607      H1615   1.083       .  S
C1608      H1616   1.082       .  S
C1609      H1617   1.085       .  S
C1609      C1610   1.345       .  D
C1610      H1618   1.086       .  S
C1611      H1619   1.087       .  S
C1611      C1612   1.342       .  D
C1612      H1620   1.086       .  S
C1621      C1622   1.402       .  A
C1621      C1626   1.410       .  A
C1621      C1629   1.490       .  S
C1622      C1623   1.397       .  A
C1622      H1631   1.083       .  S
C1623      C1624   1.408       .  A
C1623      H1632   1.082       .  S
C1624      C1625   1.403       .  A
C1624      C1627   1.490       .  S
C1625      C1626   1.401       .  A
C1625      H1633   1.083       .  S
C1626      H1634   1.081       .  S
C1627      H1635   1.086       .  S
C1627      C1628   1.346       .  D
C1628      H1636   1.086       .  S
C1629      H1637   1.086       .  S
C1629      C1630   1.345       .  D
C1630      H1638   1.085       .  S
C1639      C1640   1.403       .  A
C1639      C1644   1.404       .  A
C1639      C1647   1.480       .  S
C1640      C1641   1.397       .  A
C1640      H1649   1.084       .  S
C1641      C1642   1.407       .  A
C1641      H1650   1.081       .  S
C1642      C1643   1.404       .  A
C1642      C1645   1.484       .  S
C1643      C1644   1.398       .  A
C1643      H1651   1.083       .  S
C1644      H1652   1.082       .  S
C1645      H1653   1.086       .  S
C1645      C1646   1.348       .  D
C1646      H1654   1.085       .  S
C1647      H1655   1.087       .  S
C1647      C1648   1.349       .  D
C1648      H1656   1.086       .  S
C1657      C1658   1.404       .  A
C1657      C1662   1.410       .  A
C1657      C1665   1.493       .  S
C1658      C1659   1.397       .  A
C1658      H1667   1.084       .  S
C1659      C1660   1.408       .  A
C1659      H1668   1.081       .  S
C1660      C1661   1.405       .  A
C1660      C1663   1.493       .  S
C1661      C1662   1.402       .  A
C1661      H1669   1.083       .  S
C1662      H1670   1.080       .  S
C1663      H1671   1.085       .  S
C1663      C1664   1.349       .  D
C1664      H1672   1.084       .  S
C1665      H1673   1.087       .  S
C1665      C1666   1.350       .  D
C1666      H1674   1.083       .  S
C1675      C1676   1.402       .  A
C1675      C1680   1.406       .  A
C1675      C1683   1.486       .  S
C1676      C1677   1.397       .  A
C1676      H1685   1.084       .  S
C1677      C1678   1.408       .  A
C1677      H1686   1.079       .  S
C1678      C1679   1.408       .  A
C1678      C1681   1.494       .  S
C1679      C1680   1.402       .  A
C1679      H1687   1.083       .  S
C1680      H1688   1.082       .  S
C1681      H1689   1.086   1_655  S
C1681      C1682   1.352   1_655  D
C1682      H1690   1.082   1_455  S
C1683      H1691   1.087       .  S
C1683      C1684   1.348       .  D
C1684      H1692   1.085       .  S
C1693      C1694   1.404       .  A
C1693      C1698   1.407       .  A
C1693      C1701   1.484       .  S
C1694      C1695   1.400       .  A
C1694      H1703   1.083       .  S
C1695      C1696   1.405       .  A
C1695      H1704   1.083       .  S
C1696      C1697   1.402       .  A
C1696      C1699   1.479       .  S
C1697      C1698   1.399       .  A
C1697      H1705   1.083       .  S
C1698      H1706   1.083       .  S
C1699      H1707   1.087       .  S
C1699      C1700   1.343       .  D
C1700      H1708   1.087       .  S
C1701      H1709   1.087       .  S
C1701      C1702   1.345       .  D
C1702      H1710   1.087       .  S
C1711      C1712   1.403       .  A
C1711      C1716   1.412       .  A
C1711      C1719   1.493       .  S
C1712      C1713   1.397       .  A
C1712      H1721   1.083       .  S
C1713      C1714   1.408       .  A
C1713      H1722   1.081       .  S
C1714      C1715   1.402       .  A
C1714      C1717   1.488       .  S
C1715      C1716   1.399       .  A
C1715      H1723   1.084       .  S
C1716      H1724   1.080       .  S
C1717      H1725   1.085       .  S
C1717      C1718   1.347       .  D
C1718      H1726   1.085       .  S
C1719      H1727   1.086       .  S
C1719      C1720   1.345       .  D
C1720      H1728   1.083       .  S
C1729      C1730   1.405       .  A
C1729      C1734   1.409       .  A
C1729      C1737   1.491       .  S
C1730      C1731   1.398       .  A
C1730      H1739   1.083       .  S
C1731      C1732   1.406       .  A
C1731      H1740   1.081       .  S
C1732      C1733   1.405       .  A
C1732      C1735   1.490       .  S
C1733      C1734   1.401       .  A
C1733      H1741   1.083       .  S
C1734      H1742   1.080       .  S
C1735      H1743   1.082       .  S
C1735      C1736   1.352       .  D
C1736      H1744   1.085       .  S
C1737      H1745   1.087       .  S
C1737      C1738   1.350       .  D
C1738      H1746   1.083       .  S
C1747      C1748   1.405       .  A
C1747      C1752   1.408       .  A
C1747      C1755   1.492       .  S
C1748      C1749   1.401       .  A
C1748      H1757   1.083       .  S
C1749      C1750   1.408       .  A
C1749      H1758   1.080       .  S
C1750      C1751   1.404       .  A
C1750      C1753   1.489       .  S
C1751      C1752   1.397       .  A
C1751      H1759   1.084       .  S
C1752      H1760   1.081       .  S
C1753      H1761   1.087       .  S
C1753      C1754   1.348       .  D
C1754      H1762   1.083       .  S
C1755      H1763   1.085       .  S
C1755      C1756   1.350       .  D
C1756      H1764   1.084       .  S
C1765      C1766   1.404       .  A
C1765      C1770   1.406       .  A
C1765      C1773   1.486       .  S
C1766      C1767   1.400       .  A
C1766      H1775   1.083       .  S
C1767      C1768   1.408       .  A
C1767      H1776   1.080       .  S
C1768      C1769   1.405       .  A
C1768      C1771   1.489       .  S
C1769      C1770   1.397       .  A
C1769      H1777   1.084       .  S
C1770      H1778   1.082       .  S
C1771      H1779   1.086       .  S
C1771      C1772   1.350       .  D
C1772      H1780   1.084       .  S
C1773      H1781   1.087       .  S
C1773      C1774   1.348       .  D
C1774      H1782   1.085       .  S
C1783      C1784   1.402       .  A
C1783      C1788   1.408       .  A
C1783      C1791   1.488       .  S
C1784      C1785   1.397       .  A
C1784      H1793   1.083       .  S
C1785      C1786   1.408       .  A
C1785      H1794   1.082       .  S
C1786      C1787   1.405       .  A
C1786      C1789   1.490       .  S
C1787      C1788   1.403       .  A
C1787      H1795   1.083       .  S
C1788      H1796   1.082       .  S
C1789      H1797   1.087       .  S
C1789      C1790   1.345       .  D
C1790      H1798   1.086       .  S
C1791      H1799   1.086       .  S
C1791      C1792   1.347       .  D
C1792      H1800   1.086       .  S
C1801      C1802   1.403       .  A
C1801      C1806   1.407       .  A
C1801      C1809   1.489       .  S
C1802      C1803   1.401       .  A
C1802      H1811   1.083       .  S
C1803      C1804   1.410       .  A
C1803      H1812   1.080       .  S
C1804      C1805   1.403       .  A
C1804      C1807   1.491       .  S
C1805      C1806   1.397       .  A
C1805      H1813   1.083       .  S
C1806      H1814   1.082       .  S
C1807      H1815   1.085       .  S
C1807      C1808   1.347       .  D
C1808      H1816   1.084       .  S
C1809      H1817   1.085       .  S
C1809      C1810   1.348       .  D
C1810      H1818   1.086       .  S
C1819      C1820   1.403       .  A
C1819      C1824   1.407       .  A
C1819      C1827   1.484       .  S
C1820      C1821   1.398   1_545  A
C1820      H1829   1.084       .  S
C1821      C1822   1.408       .  A
C1821      H1830   1.081       .  S
C1822      C1823   1.402       .  A
C1822      C1825   1.485       .  S
C1823      C1824   1.395   1_565  A
C1823      H1831   1.083       .  S
C1824      H1832   1.081       .  S
C1825      H1833   1.082       .  S
C1825      C1826   1.348       .  D
C1826      H1834   1.084       .  S
C1827      H1835   1.087       .  S
C1827      C1828   1.347       .  D
C1828      H1836   1.084       .  S
C1837      C1838   1.400       .  A
C1837      C1842   1.411       .  A
C1837      C1845   1.490       .  S
C1838      C1839   1.398       .  A
C1838      H1847   1.083       .  S
C1839      C1840   1.410       .  A
C1839      H1848   1.081       .  S
C1840      C1841   1.403       .  A
C1840      C1843   1.491       .  S
C1841      C1842   1.401       .  A
C1841      H1849   1.083       .  S
C1842      H1850   1.082       .  S
C1843      H1851   1.086       .  S
C1843      C1844   1.347       .  D
C1844      H1852   1.085       .  S
C1845      H1853   1.087       .  S
C1845      C1846   1.342       .  D
C1846      H1854   1.086       .  S
C1855      C1856   1.403   1_455  A
C1855      C1860   1.408       .  A
C1855      C1863   1.487   1_455  S
C1856      C1857   1.399       .  A
C1856      H1865   1.083       .  S
C1857      C1858   1.405   1_655  A
C1857      H1866   1.083       .  S
C1858      C1859   1.404       .  A
C1858      C1861   1.485       .  S
C1859      C1860   1.403       .  A
C1859      H1867   1.083       .  S
C1860      H1868   1.083       .  S
C1861      H1869   1.087       .  S
C1861      C1862   1.346       .  D
C1862      H1870   1.087       .  S
C1863      H1871   1.087       .  S
C1863      C1864   1.347   1_655  D
C1864      H1872   1.087       .  S
C1873      C1874   1.404       .  A
C1873      C1878   1.410       .  A
C1873      C1881   1.490       .  S
C1874      C1875   1.396       .  A
C1874      H1883   1.083       .  S
C1875      C1876   1.405       .  A
C1875      H1884   1.082       .  S
C1876      C1877   1.404       .  A
C1876      C1879   1.488       .  S
C1877      C1878   1.402       .  A
C1877      H1885   1.083       .  S
C1878      H1886   1.080       .  S
C1879      H1887   1.087       .  S
C1879      C1880   1.349       .  D
C1880      H1888   1.086       .  S
C1881      H1889   1.085       .  S
C1881      C1882   1.349       .  D
C1882      H1890   1.084       .  S
C1891      C1892   1.403       .  A
C1891      C1896   1.408       .  A
C1891      C1899   1.488       .  S
C1892      C1893   1.400       .  A
C1892      H1901   1.083       .  S
C1893      C1894   1.408       .  A
C1893      H1902   1.082       .  S
C1894      C1895   1.402       .  A
C1894      C1897   1.486       .  S
C1895      C1896   1.397       .  A
C1895      H1903   1.083       .  S
C1896      H1904   1.082       .  S
C1897      H1905   1.087       .  S
C1897      C1898   1.344       .  D
C1898      H1906   1.086       .  S
C1899      H1907   1.086       .  S
C1899      C1900   1.345       .  D
C1900      H1908   1.086       .  S
C1909      C1910   1.406       .  A
C1909      C1914   1.408       .  A
C1909      C1917   1.493       .  S
C1910      C1911   1.402       .  A
C1910      H1919   1.083       .  S
C1911      C1912   1.408       .  A
C1911      H1920   1.082       .  S
C1912      C1913   1.402       .  A
C1912      C1915   1.488       .  S
C1913      C1914   1.397       .  A
C1913      H1921   1.083       .  S
C1914      H1922   1.080       .  S
C1915      H1923   1.087       .  S
C1915      C1916   1.347       .  D
C1916      H1924   1.085       .  S
C1917      H1925   1.085       .  S
C1917      C1918   1.351       .  D
C1918      H1926   1.083       .  S
C1927      C1928   1.401       .  A
C1927      C1932   1.411       .  A
C1927      C1935   1.487       .  S
C1928      C1929   1.396       .  A
C1928      H1937   1.083       .  S
C1929      C1930   1.408       .  A
C1929      H1938   1.083       .  S
C1930      C1931   1.400       .  A
C1930      C1933   1.484       .  S
C1931      C1932   1.399       .  A
C1931      H1939   1.083       .  S
C1932      H1940   1.081       .  S
C1933      H1941   1.087       .  S
C1933      C1934   1.341       .  D
C1934      H1942   1.087       .  S
C1935      H1943   1.086       .  S
C1935      C1936   1.345       .  D
C1936      H1944   1.085       .  S
C1945      C1946   1.405       .  A
C1945      C1950   1.409       .  A
C1945      C1953   1.484       .  S
C1946      C1947   1.396       .  A
C1946      H1955   1.084       .  S
C1947      C1948   1.404       .  A
C1947      H1956   1.083       .  S
C1948      C1949   1.400       .  A
C1948      C1951   1.475       .  S
C1949      C1950   1.395       .  A
C1949      H1957   1.084       .  S
C1950      H1958   1.079       .  S
C1951      H1959   1.087       .  S
C1951      C1952   1.344       .  D
C1952      H1960   1.086       .  S
C1953      H1961   1.086       .  S
C1953      C1954   1.347       .  D
C1954      H1962   1.083       .  S
C1963      C1964   1.405   1_554  A
C1963      C1968   1.408       .  A
C1963      C1971   1.488       .  S
C1964      C1965   1.396       .  A
C1964      H1973   1.084       .  S
C1965      C1966   1.406       .  A
C1965      H1974   1.083       .  S
C1966      C1967   1.403   1_556  A
C1966      C1969   1.486       .  S
C1967      C1968   1.401       .  A
C1967      H1975   1.083       .  S
C1968      H1976   1.081       .  S
C1969      H1977   1.085   1_556  S
C1969      C1970   1.347       .  D
C1970      H1978   1.086       .  S
C1971      H1979   1.088   1_554  S
C1971      C1972   1.348       .  D
C1972      H1980   1.084       .  S
C1981      C1982   1.403       .  A
C1981      C1986   1.409       .  A
C1981      C1989   1.487       .  S
C1982      C1983   1.400   1_556  A
C1982      H1991   1.083       .  S
C1983      C1984   1.408       .  A
C1983      H1992   1.082       .  S
C1984      C1985   1.400       .  A
C1984      C1987   1.483       .  S
C1985      C1986   1.394   1_554  A
C1985      H1993   1.084       .  S
C1986      H1994   1.081       .  S
C1987      H1995   1.087       .  S
C1987      C1988   1.343       .  D
C1988      H1996   1.086       .  S
C1989      H1997   1.086       .  S
C1989      C1990   1.343       .  D
C1990      H1998   1.085       .  S
C1999      C2000   1.402       .  A
C1999      C2004   1.410       .  A
C1999      C2007   1.489       .  S
C2000      C2001   1.401       .  A
C2000      H2009   1.083       .  S
C2001      C2002   1.410       .  A
C2001      H2010   1.082       .  S
C2002      C2003   1.401       .  A
C2002      C2005   1.488       .  S
C2003      C2004   1.397       .  A
C2003      H2011   1.083       .  S
C2004      H2012   1.082       .  S
C2005      H2013   1.087       .  S
C2005      C2006   1.343       .  D
C2006      H2014   1.086       .  S
C2007      H2015   1.087       .  S
C2007      C2008   1.344       .  D
C2008      H2016   1.086       .  S
C2017      C2018   1.404       .  A
C2017      C2022   1.411       .  A
C2017      C2025   1.495       .  S
C2018      C2019   1.399       .  A
C2018      H2027   1.083       .  S
C2019      C2020   1.408       .  A
C2019      H2028   1.082       .  S
C2020      C2021   1.404       .  A
C2020      C2023   1.493       .  S
C2021      C2022   1.402       .  A
C2021      H2029   1.083   1_455  S
C2022      H2030   1.080   1_455  S
C2023      H2031   1.087       .  S
C2023      C2024   1.346       .  D
C2024      H2032   1.086       .  S
C2025      H2033   1.086       .  S
C2025      C2026   1.348       .  D
C2026      H2034   1.084       .  S
C2035      C2036   1.400       .  A
C2035      C2040   1.408       .  A
C2035      C2043   1.484       .  S
C2036      C2037   1.396       .  A
C2036      H2045   1.084       .  S
C2037      C2038   1.409       .  A
C2037      H2046   1.081       .  S
C2038      C2039   1.403       .  A
C2038      C2041   1.487       .  S
C2039      C2040   1.399       .  A
C2039      H2047   1.083       .  S
C2040      H2048   1.082       .  S
C2041      H2049   1.085       .  S
C2041      C2042   1.345       .  D
C2042      H2050   1.085       .  S
C2043      H2051   1.087       .  S
C2043      C2044   1.343       .  D
C2044      H2052   1.085       .  S
C2053      C2054   1.402       .  A
C2053      C2058   1.407       .  A
C2053      C2061   1.480       .  S
C2054      C2055   1.394       .  A
C2054      H2063   1.084       .  S
C2055      C2056   1.405       .  A
C2055      H2064   1.082       .  S
C2056      C2057   1.402       .  A
C2056      C2059   1.480       .  S
C2057      C2058   1.397       .  A
C2057      H2065   1.083       .  S
C2058      H2066   1.081       .  S
C2059      H2067   1.085       .  S
C2059      C2060   1.346       .  D
C2060      H2068   1.085       .  S
C2061      H2069   1.087       .  S
C2061      C2062   1.345       .  D
C2062      H2070   1.084       .  S
C2071      C2072   1.402       .  A
C2071      C2076   1.411       .  A
C2071      C2079   1.488       .  S
C2072      C2073   1.396       .  A
C2072      H2081   1.084       .  S
C2073      C2074   1.408       .  A
C2073      H2082   1.082       .  S
C2074      C2075   1.401       .  A
C2074      C2077   1.484       .  S
C2075      C2076   1.399       .  A
C2075      H2083   1.083       .  S
C2076      H2084   1.080   1_655  S
C2077      H2085   1.087       .  S
C2077      C2078   1.343       .  D
C2078      H2086   1.086       .  S
C2079      H2087   1.085       .  S
C2079      C2080   1.346   1_655  D
C2080      H2088   1.083       .  S
C2089      C2090   1.404       .  A
C2089      C2094   1.408       .  A
C2089      C2097   1.484       .  S
C2090      C2091   1.398       .  A
C2090      H2099   1.083       .  S
C2091      C2092   1.404       .  A
C2091      H2100   1.083       .  S
C2092      C2093   1.402       .  A
C2092      C2095   1.476       .  S
C2093      C2094   1.396       .  A
C2093      H2101   1.084       .  S
C2094      H2102   1.082       .  S
C2095      H2103   1.089       .  S
C2095      C2096   1.343       .  D
C2096      H2104   1.086       .  S
C2097      H2105   1.087       .  S
C2097      C2098   1.343       .  D
C2098      H2106   1.086       .  S
C2107      C2108   1.403       .  A
C2107      C2112   1.406       .  A
C2107      C2115   1.485       .  S
C2108      C2109   1.398       .  A
C2108      H2117   1.084       .  S
C2109      C2110   1.408       .  A
C2109      H2118   1.081       .  S
C2110      C2111   1.405       .  A
C2110      C2113   1.489       .  S
C2111      C2112   1.398       .  A
C2111      H2119   1.083       .  S
C2112      H2120   1.081       .  S
C2113      H2121   1.085       .  S
C2113      C2114   1.349       .  D
C2114      H2122   1.084       .  S
C2115      H2123   1.087       .  S
C2115      C2116   1.348       .  D
C2116      H2124   1.085       .  S
C2125      C2126   1.404       .  A
C2125      C2130   1.409       .  A
C2125      C2133   1.493       .  S
C2126      C2127   1.403       .  A
C2126      H2135   1.083       .  S
C2127      C2128   1.409       .  A
C2127      H2136   1.081       .  S
C2128      C2129   1.404       .  A
C2128      C2131   1.492       .  S
C2129      C2130   1.398       .  A
C2129      H2137   1.084       .  S
C2130      H2138   1.081       .  S
C2131      H2139   1.085       .  S
C2131      C2132   1.351       .  D
C2132      H2140   1.084       .  S
C2133      H2141   1.087       .  S
C2133      C2134   1.347       .  D
C2134      H2142   1.085       .  S
C2143      C2144   1.402       .  A
C2143      C2148   1.405       .  A
C2143      C2151   1.484       .  S
C2144      C2145   1.398       .  A
C2144      H2153   1.084       .  S
C2145      C2146   1.409   1_545  A
C2145      H2154   1.079   1_545  S
C2146      C2147   1.406       .  A
C2146      C2149   1.492       .  S
C2147      C2148   1.399   1_565  A
C2147      H2155   1.083       .  S
C2148      H2156   1.082       .  S
C2149      H2157   1.085       .  S
C2149      C2150   1.350       .  D
C2150      H2158   1.082       .  S
C2151      H2159   1.087       .  S
C2151      C2152   1.348       .  D
C2152      H2160   1.086       .  S
C2161      C2162   1.403       .  A
C2161      C2166   1.409       .  A
C2161      C2169   1.489       .  S
C2162      C2163   1.400       .  A
C2162      H2171   1.083       .  S
C2163      C2164   1.409       .  A
C2163      H2172   1.081       .  S
C2164      C2165   1.403       .  A
C2164      C2167   1.490       .  S
C2165      C2166   1.398       .  A
C2165      H2173   1.083       .  S
C2166      H2174   1.081       .  S
C2167      H2175   1.086       .  S
C2167      C2168   1.345       .  D
C2168      H2176   1.085       .  S
C2169      H2177   1.085       .  S
C2169      C2170   1.347       .  D
C2170      H2178   1.085       .  S
C2179      C2180   1.404       .  A
C2179      C2184   1.410       .  A
C2179      C2187   1.489       .  S
C2180      C2181   1.397       .  A
C2180      H2189   1.083       .  S
C2181      C2182   1.406       .  A
C2181      H2190   1.082       .  S
C2182      C2183   1.402       .  A
C2182      C2185   1.484       .  S
C2183      C2184   1.398       .  A
C2183      H2191   1.084       .  S
C2184      H2192   1.080       .  S
C2185      H2193   1.084       .  S
C2185      C2186   1.348       .  D
C2186      H2194   1.086       .  S
C2187      H2195   1.087       .  S
C2187      C2188   1.346       .  D
C2188      H2196   1.083       .  S
C2197      C2198   1.403       .  A
C2197      C2202   1.409       .  A
C2197      C2205   1.492       .  S
C2198      C2199   1.400       .  A
C2198      H2207   1.083       .  S
C2199      C2200   1.409       .  A
C2199      H2208   1.081       .  S
C2200      C2201   1.405   1_655  A
C2200      C2203   1.491       .  S
C2201      C2202   1.400   1_455  A
C2201      H2209   1.084       .  S
C2202      H2210   1.082   1_655  S
C2203      H2211   1.087   1_655  S
C2203      C2204   1.348       .  D
C2204      H2212   1.084       .  S
C2205      H2213   1.086       .  S
C2205      C2206   1.346       .  D
C2206      H2214   1.086   1_655  S
C2215      C2216   1.404       .  A
C2215      C2220   1.408       .  A
C2215      C2223   1.487       .  S
C2216      C2217   1.397       .  A
C2216      H2225   1.084       .  S
C2217      C2218   1.408       .  A
C2217      H2226   1.080       .  S
C2218      C2219   1.403       .  A
C2218      C2221   1.488       .  S
C2219      C2220   1.398       .  A
C2219      H2227   1.083       .  S
C2220      H2228   1.080       .  S
C2221      H2229   1.085       .  S
C2221      C2222   1.348       .  D
C2222      H2230   1.083       .  S
C2223      H2231   1.087       .  S
C2223      C2224   1.348       .  D
C2224      H2232   1.083       .  S
C2233      C2234   1.402       .  A
C2233      C2238   1.410       .  A
C2233      C2241   1.492       .  S
C2234      C2235   1.398       .  A
C2234      H2243   1.083       .  S
C2235      C2236   1.409       .  A
C2235      H2244   1.081       .  S
C2236      C2237   1.404       .  A
C2236      C2239   1.493       .  S
C2237      C2238   1.402       .  A
C2237      H2245   1.083       .  S
C2238      H2246   1.081       .  S
C2239      H2247   1.084       .  S
C2239      C2240   1.348       .  D
C2240      H2248   1.085       .  S
C2241      H2249   1.087       .  S
C2241      C2242   1.345       .  D
C2242      H2250   1.085       .  S
C2251      C2252   1.404       .  A
C2251      C2256   1.409       .  A
C2251      C2259   1.492       .  S
C2252      C2253   1.401       .  A
C2252      H2261   1.083       .  S
C2253      C2254   1.409       .  A
C2253      H2262   1.082       .  S
C2254      C2255   1.402       .  A
C2254      C2257   1.490       .  S
C2255      C2256   1.399       .  A
C2255      H2263   1.083       .  S
C2256      H2264   1.081       .  S
C2257      H2265   1.085       .  S
C2257      C2258   1.346       .  D
C2258      H2266   1.086       .  S
C2259      H2267   1.086       .  S
C2259      C2260   1.347       .  D
C2260      H2268   1.085       .  S
