geometry optimzed in LAMMPS
_audit_creation_date              2020-11-30 
_audit_creation_method            'lammps2cif' 
_symmetry_space_group_name_H-M    'P1' 
_symmetry_Int_Tables_number       1 
_symmetry_cell_setting            triclinic 
loop_ 
_symmetry_equiv_pos_as_xyz 
  x,y,z 
_cell_length_a                    31.82387604 
_cell_length_b                    31.813387954970093 
_cell_length_c                    50.334455843518896 
_cell_angle_alpha                 91.19165517727909 
_cell_angle_beta                  89.35993925236586 
_cell_angle_gamma                 123.48886383199373 
loop_ 
_atom_site_label 
_atom_site_type_symbol 
_atom_site_fract_x 
_atom_site_fract_y 
_atom_site_fract_z 
_atom_site_charge 
C1          C  0.66499167  0.33632987  0.00771056     0.30100
C2          C  0.65659995  0.31316098  0.45356969     0.30100
C3          C  0.69564999  0.31520410  0.99686106    -0.06100
C4          C  0.61157970  0.29473082  0.99818055    -0.06900
C5          C  0.68049364  0.38032905  0.98930307    -0.06700
C6          C  0.69316413  0.30476035  0.46817772    -0.06100
C7          C  0.60722113  0.28099329  0.46953179    -0.06900
C8          C  0.67295324  0.36649033  0.46203679    -0.06700
C9          C  0.71078397  0.27476613  0.46224897    -0.32100
N10         N  0.72562718  0.26497640  0.48501724     0.14400
C11         C  0.71173695  0.28630466  0.00735056    -0.32100
H12         H  0.71355947  0.27954403  0.02815984     0.16300
C13         C  0.55645040  0.25714262  0.46408480    -0.31100
N14         N  0.53107300  0.25675249  0.98805516     0.13100
C15         C  0.56387329  0.27337739  0.00853790    -0.31100
C16         C  0.68613449  0.41046684  0.44971701    -0.31400
N17         N  0.70036397  0.44933233  0.96815760     0.13600
H18         H  0.68732112  0.41636003  0.42857601     0.16200
C19         C  0.69774610  0.43042087  0.99244225    -0.31400
H20         H  0.70750218  0.45163032  0.01105358     0.16200
H21         H  0.55403744  0.27424681  0.02904391     0.16200
H22         H  0.71011171  0.25873860  0.44291400     0.16300
H23         H  0.53911999  0.25226448  0.44491933     0.16200
C24         C  0.67075263  0.32741707  0.25650573     0.30100
C25         C  0.67481653  0.34545084  0.20379089     0.30100
C26         C  0.69429531  0.30529879  0.23908514    -0.06100
C27         C  0.62061088  0.30941256  0.24308385    -0.06900
C28         C  0.70401447  0.38357551  0.24893349    -0.06700
C29         C  0.69604364  0.31436615  0.21202800    -0.06100
C30         C  0.62272588  0.31898082  0.21646797    -0.06900
C31         C  0.70626372  0.39304131  0.22182469    -0.06700
C32         C  0.73071457  0.30613986  0.20072209    -0.32100
N33         N  0.74944764  0.29175291  0.21992825     0.14400
C34         C  0.72941689  0.29349696  0.24351243    -0.32100
H35         H  0.74021285  0.28724938  0.26261542     0.16300
C36         C  0.57416939  0.29924309  0.20798181    -0.31100
N37         N  0.54267391  0.27783190  0.22900630     0.13100
C38         C  0.57072290  0.28366717  0.25060276    -0.31100
C39         C  0.73940097  0.44451271  0.21912833    -0.31400
N40         N  0.75517249  0.46608723  0.24356358     0.13600
H41         H  0.75173677  0.46565730  0.20095243     0.16200
C42         C  0.73513595  0.42937752  0.26190227    -0.31400
H43         H  0.74199798  0.43598443  0.28306813     0.16200
H44         H  0.55582902  0.26929477  0.27008876     0.16200
H45         H  0.74271149  0.31177737  0.18021040     0.16300
H46         H  0.56236191  0.29845432  0.18770198     0.16200
C47         C  0.07653492  0.93004233  0.38404527     0.42600
N48         N  0.01914657  0.94425863  0.39216556     0.01500
C49         C  0.04903427  0.16856656  0.43138780    -0.06400
H50         H  0.12651210  0.09997841  0.49678125     0.07000
C51         C  0.94801106  0.96414860  0.02116380    -0.06800
Co52       Co  0.06037031  0.05312953  0.40009368     0.74200
N53         N  0.09125421  0.07986597  0.45822869    -0.25900
Co54       Co  0.02437833  0.07556580  0.46417681     0.74100
C55         C  0.98656364  0.00422735  0.03939468     0.42700
N56         N  0.91868489  0.89626163  0.45254510     0.01100
N57         N  0.00381106  0.02733435  0.49805070     0.01200
N58         N  0.07228746  0.15365645  0.39155811    -0.46800
H59         H  0.13937549  0.01445095  0.38823232     0.06900
N60         N  0.10508470  0.07239276  0.43460674     0.01500
N61         N  0.95556449  0.06819919  0.46877658     0.01200
C62         C  0.89730611  0.08022943  0.47862628     0.42800
N63         N  0.93162762  0.88966444  0.42846606    -0.25400
C64         C  0.02855035  0.04934488  0.33903362    -0.06300
N65         N  0.02623322  0.90772831  0.38650663    -0.46500
N66         N  0.94747087  0.10395356  0.47464954    -0.46700
C67         C  0.98916991  0.01028838  0.32077755     0.42600
N68         N  0.05689169  0.11566519  0.40787453     0.01500
N69         N  0.88402735  0.93454062  0.40316619    -0.25400
N70         N  0.06162008  0.98901000  0.39383093    -0.25900
N71         N  0.87128748  0.94159122  0.42721698     0.01100
H72         H  0.84458659  0.91091657  0.36575245     0.07000
H73         H  0.83571351  0.99542137  0.47509669     0.07000
N74         N  0.04357245  0.12367137  0.43154982    -0.26000
N75         N  0.96209603  0.98155200  0.49678058    -0.25600
N76         N  0.97260521  0.98684383  0.36282141     0.01500
C77         C  0.16588035  0.08987637  0.46083816     0.42900
C78         C  0.92358654  0.84386353  0.42680837    -0.06800
N79         N  0.91379994  0.02279185  0.46827384    -0.25600
H80         H  0.91322083  0.92972210  0.02671495     0.07000
N81         N  0.14974768  0.07857801  0.43538426    -0.46800
H82         H  0.92652217  0.82651890  0.40877381     0.07000
C83         C  0.80868399  0.92400724  0.40244575     0.42700
C84         C  0.10012613  0.98396636  0.38914275    -0.06300
Co85       Co  0.95089967  0.93827301  0.39655089     0.73800
N86         N  0.89991749  0.85543267  0.46722163    -0.46500
C87         C  0.06891401  0.18875935  0.40505869     0.43000
N88         N  0.95648213  0.97283522  0.33762706    -0.46500
Co89       Co  0.91606865  0.95946918  0.46135006     0.73900
C90         C  0.87476718  0.02647447  0.47408692    -0.06800
C91         C  0.12726472  0.09125858  0.47595789    -0.06400
N92         N  0.01536347  0.03170694  0.36429809    -0.25900
N93         N  0.01737507  0.04264485  0.02247542    -0.46700
H94         H  0.04212063  0.18580779  0.44813264     0.07000
C95         C  0.84646802  0.92254450  0.38627776    -0.06800
Cl96       Cl  0.98794395  0.00660765  0.43056646    -0.49800
C97         C  0.90221664  0.82081755  0.45229241     0.42700
H98         H  0.06460789  0.08230103  0.33355613     0.06900
N99         N  0.82677462  0.93558123  0.42747855    -0.46500
C100        C  0.06788442  0.91676529  0.14283714     0.42600
N101        N  0.01394730  0.93696599  0.14424348     0.01500
C102        C  0.06359992  0.17111182  0.17962078    -0.06400
H103        H  0.13293100  0.09884311  0.24527996     0.07000
C104        C  0.94784893  0.96855145  0.27174650    -0.06800
Co105      Co  0.06171512  0.04750149  0.14961142     0.74200
N106        N  0.09425369  0.07509625  0.20761496    -0.25900
Co107      Co  0.03008438  0.07668870  0.21302441     0.74100
C108        C  0.98823166  0.00690250  0.28978880     0.42700
N109        N  0.91488569  0.89875553  0.20420383     0.01100
N110        N  0.00517279  0.02946152  0.24761880     0.01200
N111        N  0.08265417  0.15174599  0.13977802    -0.46800
H112        H  0.13443108  0.00010136  0.14459072     0.06900
N113        N  0.10636832  0.06547182  0.18401675     0.01500
N114        N  0.96424591  0.07565743  0.21609709     0.01200
C115        C  0.91057374  0.09644727  0.21899827     0.42800
N116        N  0.92604877  0.88856278  0.18050555    -0.25400
C117        C  0.02927632  0.04478737  0.08859912    -0.06300
N118        N  0.01808599  0.89780534  0.14274522    -0.46500
N119        N  0.96033891  0.11494758  0.21820518    -0.46700
C120        C  0.98859316  0.00671275  0.07051375     0.42600
N121        N  0.06405276  0.11355038  0.15630642     0.01500
N122        N  0.88432808  0.93691297  0.15272887    -0.25400
N123        N  0.05785491  0.98040143  0.14502297    -0.25900
N124        N  0.87139685  0.94600178  0.17621555     0.01100
H125        H  0.84632950  0.91137945  0.11507346     0.07000
H126        H  0.84391101  0.01329173  0.21469274     0.07000
N127        N  0.05309335  0.12416804  0.17997170    -0.26000
N128        N  0.96123958  0.98563366  0.24641777    -0.25600
N129        N  0.97272943  0.98313509  0.11266202     0.01500
C130        C  0.16814103  0.08274550  0.20945462     0.42900
C131        C  0.92026657  0.84366628  0.18136515    -0.06800
N132        N  0.92015171  0.03230233  0.21508754    -0.25600
H133        H  0.91130618  0.93643649  0.27738983     0.07000
N134        N  0.15028649  0.07002358  0.18437781    -0.46800
H135        H  0.92566567  0.82530351  0.16463618     0.07000
C136        C  0.81023308  0.92790909  0.15016747     0.42700
C137        C  0.09440485  0.97162734  0.14390174    -0.06300
Co138      Co  0.94831801  0.93577337  0.14734615     0.73800
N139        N  0.90121328  0.86219503  0.22137249    -0.46500
C140        C  0.08303483  0.18923226  0.15305809     0.43000
N141        N  0.95556703  0.96967324  0.08754985    -0.46500
Co142      Co  0.91615892  0.96470267  0.21069583     0.73900
C143        C  0.88379726  0.04147368  0.21648670    -0.06800
C144        C  0.13115349  0.08672904  0.22485626    -0.06400
N145        N  0.01650709  0.02709592  0.11388374    -0.25900
N146        N  0.02182706  0.04344496  0.27275798    -0.46700
H147        H  0.06198534  0.19160675  0.19660759     0.07000
C148        C  0.84794151  0.92482658  0.13518230    -0.06800
Cl149      Cl  0.98902039  0.00621914  0.18018681    -0.49800
C150        C  0.90443602  0.82623747  0.20851172     0.42700
H151        H  0.06552863  0.07726334  0.08293301     0.06900
N152        N  0.82692156  0.94032021  0.17550131    -0.46500
C153        C  0.31208225  0.68464544  0.33984846     0.30100
C154        C  0.30211809  0.67443580  0.39355011     0.30100
C155        C  0.29015593  0.71152710  0.35394133    -0.06100
C156        C  0.27721385  0.62979336  0.34968888    -0.06900
C157        C  0.36070864  0.70221767  0.35531844    -0.06700
C158        C  0.28666723  0.70799831  0.38131347    -0.06100
C159        C  0.27176331  0.62566903  0.37713532    -0.06900
C160        C  0.35610423  0.69929230  0.38280996    -0.06700
C161        C  0.26925299  0.73717082  0.38993135    -0.32100
N162        N  0.25939336  0.75555245  0.36851134     0.14400
C163        C  0.27174192  0.73976765  0.34630534    -0.32100
H164        H  0.26679494  0.74736375  0.32609520     0.16300
C165        C  0.24175849  0.57559546  0.38312773    -0.31100
N166        N  0.22990163  0.54835508  0.36025395     0.13100
C167        C  0.25168334  0.58063403  0.33965631    -0.31100
C168        C  0.40429578  0.72355799  0.39299484    -0.31400
N169        N  0.43690496  0.73702794  0.37243848     0.13600
H170        H  0.41515201  0.73164187  0.41366041     0.16200
C171        C  0.41085435  0.72360999  0.34937458    -0.31400
H172        H  0.42766241  0.73063383  0.32980699     0.16200
H173        H  0.25022914  0.56879870  0.31928291     0.16200
H174        H  0.26350217  0.74450242  0.41030684     0.16300
H175        H  0.23129910  0.55988027  0.40282773     0.16200
C176        C  0.30980250  0.68380790  0.08969537     0.30100
C177        C  0.32518269  0.69196911  0.14319264     0.30100
C178        C  0.28378536  0.70468996  0.10576075    -0.06100
C179        C  0.29169077  0.63378197  0.10409243    -0.06900
C180        C  0.36513604  0.71661380  0.09875114    -0.06700
C181        C  0.29091789  0.70811206  0.13296346    -0.06100
C182        C  0.29789152  0.63814944  0.13161030    -0.06900
C183        C  0.37220648  0.72154387  0.12606230    -0.06700
C184        C  0.26081699  0.72254987  0.14386525    -0.32100
N185        N  0.23769513  0.73042016  0.12398294     0.14400
C186        C  0.25153623  0.71963837  0.10050164    -0.32100
H187        H  0.23984422  0.72325416  0.08104372     0.16300
C188        C  0.27475904  0.59025570  0.14134025    -0.31100
N189        N  0.25934702  0.55738673  0.12055468     0.13100
C190        C  0.26947983  0.58323084  0.09771087    -0.31100
C191        C  0.42240265  0.74351577  0.13097085    -0.31400
N192        N  0.44619060  0.75089085  0.10749986     0.13600
H193        H  0.44006109  0.75042099  0.15031354     0.16200
C194        C  0.41188172  0.73397163  0.08756230    -0.31400
H195        H  0.41994897  0.73221717  0.06680766     0.16200
H196        H  0.26128251  0.56602488  0.07810762     0.16200
H197        H  0.25566774  0.72698829  0.16482507     0.16300
H198        H  0.26978255  0.57976253  0.16198508     0.16200
C199        C  0.36645740  0.74616344  0.27264054    -0.11300
C200        C  0.33150090  0.70799617  0.25560907     0.15300
C201        C  0.28688981  0.66618123  0.26569594     0.02200
C202        C  0.28117642  0.66027507  0.29297890    -0.15600
C203        C  0.31882505  0.69559072  0.31049750    -0.10400
C204        C  0.35889345  0.74240011  0.29993154     0.08900
C205        C  0.34216443  0.71195593  0.22733896     0.09900
S206        S  0.23586622  0.61943379  0.24480575    -0.24800
H207        H  0.24600731  0.62899921  0.30032506     0.20200
S208        S  0.40092046  0.80054513  0.31833440    -0.30500
H209        H  0.39918573  0.77969598  0.26450210     0.10500
C210        C  0.34168073  0.74792066  0.21200573     0.03700
C211        C  0.34206838  0.74329392  0.18455232    -0.12800
C212        C  0.33807458  0.70095875  0.17242364    -0.08400
C213        C  0.35033498  0.67227553  0.18789826     0.07200
C214        C  0.34992916  0.67676483  0.21539806    -0.13500
S215        S  0.33640827  0.79692932  0.22703197    -0.30400
H216        H  0.34306252  0.77160672  0.17256309     0.11400
S217        S  0.37147050  0.63328814  0.17524321    -0.27500
H218        H  0.35491334  0.65220882  0.22766202     0.08600
H219        H  0.37428862  0.79033385  0.34208730     0.27100
H220        H  0.32791595  0.81398904  0.20338369     0.21900
H221        H  0.38279287  0.65122141  0.14932850     0.27200
H222        H  0.24434084  0.65203809  0.22398061     0.16000
C223        C  0.32062843  0.71554873  0.01599058    -0.11300
C224        C  0.28532949  0.67129923  0.50656651     0.15300
C225        C  0.25128173  0.62865277  0.02223427     0.02200
C226        C  0.25769454  0.63682942  0.04948957    -0.15600
C227        C  0.29946451  0.68145591  0.06027061    -0.10400
C228        C  0.32749101  0.72338856  0.04329551     0.08900
C229        C  0.28318417  0.66358204  0.47802856     0.09900
S230        S  0.19940296  0.57214836  0.51278158    -0.24800
H231        H  0.22972591  0.60764556  0.06222487     0.20200
S232        S  0.37060027  0.78804690  0.05418899    -0.30500
H233        H  0.34595544  0.74915164  0.50295546     0.10500
C234        C  0.24897372  0.66647626  0.46229648     0.03700
C235        C  0.25302632  0.66457089  0.43484256    -0.12800
C236        C  0.29350766  0.66482882  0.42303799    -0.08400
C237        C  0.32117285  0.65199358  0.43910485     0.07200
C238        C  0.31736804  0.65417895  0.46654137    -0.13500
S239        S  0.20178531  0.67452677  0.47705477    -0.30400
H240        H  0.22482471  0.66358232  0.42263329     0.11400
S241        S  0.35792167  0.62785440  0.42719105    -0.27500
H242        H  0.34081675  0.64795945  0.47914312     0.08600
H243        H  0.34602650  0.78502767  0.07800192     0.27100
H244        H  0.18165633  0.67812367  0.45310922     0.21900
H245        H  0.33532020  0.61052169  0.40221565     0.27200
H246        H  0.21943882  0.57033953  0.48810762     0.16000
C247        C  0.18147407  0.32981215  0.15399309    -0.11300
C248        C  0.16507713  0.34512961  0.13279759     0.15300
C249        C  0.12425047  0.30851397  0.11698265     0.02200
C250        C  0.09917487  0.25757946  0.12351390    -0.15600
C251        C  0.11429386  0.24244230  0.14536754    -0.10400
C252        C  0.15697413  0.27887608  0.16024684     0.08900
C253        C  0.18853647  0.39963553  0.12920230     0.09900
S254        S  0.10063356  0.32460912  0.08925904    -0.24800
H255        H  0.06666400  0.22966783  0.11193027     0.20200
S256        S  0.18218388  0.26289402  0.18726050    -0.30500
H257        H  0.21316255  0.35789982  0.16599855     0.10500
C258        C  0.16948016  0.42506494  0.14254958     0.03700
C259        C  0.19314446  0.47699870  0.13914411    -0.12800
C260        C  0.23574431  0.50403726  0.12286432    -0.08400
C261        C  0.25551270  0.47863671  0.11005042     0.01800
C262        C  0.23144383  0.42661497  0.11315098    -0.13500
S263        S  0.11561323  0.39143767  0.16430272    -0.30400
H264        H  0.17871479  0.49691582  0.14919492     0.11400
S265        S  0.31274779  0.51098238  0.09082780    -0.27500
H266        H  0.24666223  0.40712715  0.10338578     0.08600
H267        H  0.16977185  0.21640953  0.17620519     0.27100
H268        H  0.11240774  0.43268426  0.17113603     0.21900
H269        H  0.33677867  0.55530333  0.10659537     0.27200
H270        H  0.14685937  0.36806230  0.08205401     0.16000
C271        C  0.57157614  0.77292592  0.12015794    -0.11300
C272        C  0.60250524  0.82540522  0.11723563     0.15300
C273        C  0.58181062  0.85092999  0.10648712     0.02200
C274        C  0.53053926  0.82391575  0.10019900    -0.15600
C275        C  0.49905738  0.77242552  0.10534009    -0.10400
C276        C  0.52002266  0.74636289  0.11467306     0.08900
C277        C  0.65563414  0.85256618  0.12616671     0.09900
S278        S  0.61749732  0.91833708  0.10254182    -0.24800
H279        H  0.51402807  0.84395947  0.09356331     0.20200
S280        S  0.48210673  0.67995257  0.12164300    -0.30500
H281        H  0.58736978  0.75287294  0.12783920     0.10500
C282        C  0.66808425  0.85252741  0.15301966     0.03700
C283        C  0.71888896  0.87847275  0.16052000    -0.12800
C284        C  0.75751920  0.90565606  0.14191451    -0.08400
C285        C  0.74475344  0.90834918  0.11548023     0.07200
C286        C  0.69422643  0.88039075  0.10770812    -0.13500
S287        S  0.61953425  0.82068438  0.17795367    -0.30400
H288        H  0.72852510  0.87688492  0.18085888     0.11400
S289        S  0.79062328  0.94915256  0.09113989    -0.27500
H290        H  0.68477796  0.88156048  0.08724645     0.08600
H291        H  0.44122414  0.66805204  0.10534755     0.27100
H292        H  0.65178986  0.83717119  0.20010284     0.21900
H293        H  0.82304916  0.98706418  0.10955104     0.27200
H294        H  0.64676395  0.93005553  0.12561085     0.16000
C295        C  0.08872019  0.81000688  0.14576854    -0.11300
C296        C  0.13646596  0.83280228  0.13411749     0.15300
C297        C  0.16121206  0.88286371  0.12528665     0.02200
C298        C  0.13825679  0.90935562  0.12889360    -0.15600
C299        C  0.09053734  0.88688575  0.14071539    -0.10400
C300        C  0.06585706  0.83664545  0.14958196     0.08900
C301        C  0.16079407  0.80455153  0.13289248     0.09900
S302        S  0.22204073  0.91515950  0.10925101    -0.24800
H303        H  0.15757998  0.94758800  0.12182971     0.20200
S304        S  0.00716349  0.80531795  0.16752310    -0.30500
H305        H  0.07004900  0.77182050  0.15289922     0.10500
C306        C  0.20283350  0.81883026  0.14887622     0.03700
C307        C  0.22715218  0.79349110  0.14570054    -0.12800
C308        C  0.20926514  0.75290839  0.12756199    -0.08400
C309        C  0.16472318  0.73624391  0.11310759     0.07200
C310        C  0.14154100  0.76284995  0.11552823    -0.13500
S311        S  0.22504692  0.86877069  0.17359604    -0.30400
H312        H  0.26075651  0.80577311  0.15708068     0.11400
S313        S  0.13430423  0.68012480  0.09243862    -0.27500
H314        H  0.10813696  0.75086078  0.10394599     0.08600
H315        H  0.02014482  0.84781791  0.18336341     0.27100
H316        H  0.26528872  0.86672942  0.18307992     0.21900
H317        H  0.14911566  0.65410342  0.10791140     0.27200
H318        H  0.21739191  0.87194032  0.09805001     0.16000
C319        C  0.19514465  0.41519369  0.35391792    -0.11300
C320        C  0.14852874  0.38953196  0.36709167     0.15300
C321        C  0.12673844  0.41611071  0.37524820     0.02200
C322        C  0.15302406  0.46802752  0.37125592    -0.15600
C323        C  0.20069555  0.49423317  0.35922697    -0.10400
C324        C  0.22170903  0.46746896  0.35012767     0.08900
C325        C  0.12799957  0.33770732  0.37611898     0.09900
S326        S  0.06713968  0.38654562  0.39240346    -0.24800
H327        H  0.13724431  0.48870034  0.37851866     0.20200
S328        S  0.28461083  0.50056378  0.33655264    -0.30500
H329        H  0.21198669  0.39474038  0.34817995     0.10500
C330        C  0.10365073  0.29557421  0.35875521     0.03700
C331        C  0.08494663  0.24736622  0.36873379    -0.12800
C332        C  0.09094684  0.24070391  0.39565227    -0.08400
C333        C  0.11792695  0.28367019  0.41257463     0.07200
C334        C  0.13492834  0.33128706  0.40279213    -0.13500
S335        S  0.09540409  0.30313012  0.32415037    -0.30400
H336        H  0.06506213  0.21473690  0.35566105     0.11400
S337        S  0.13604626  0.28152798  0.44604934    -0.27500
H338        H  0.15517695  0.36393140  0.41586583     0.08600
H339        H  0.28783697  0.45838657  0.33343068     0.27100
H340        H  0.07394996  0.25252658  0.31633931     0.21900
H341        H  0.14759190  0.24558650  0.44004187     0.27200
H342        H  0.04662764  0.33799676  0.38143747     0.16000
C343        C  0.68488495  0.87555720  0.36627387    -0.11300
C344        C  0.65029565  0.85089137  0.38700405     0.15300
C345        C  0.66827175  0.85273538  0.41275797     0.02200
C346        C  0.71991841  0.87712516  0.41700458    -0.15600
C347        C  0.75479577  0.90106542  0.39627284    -0.10400
C348        C  0.73692023  0.90157065  0.37074307     0.08900
C349        C  0.59566023  0.82190516  0.38128437     0.09900
S350        S  0.62729811  0.82451373  0.44108196    -0.24800
H351        H  0.73281627  0.87692003  0.43680336     0.20200
S352        S  0.77801546  0.93628784  0.34344124    -0.30500
H353        H  0.67120276  0.87487207  0.34654589     0.10500
C354        C  0.57110050  0.84597567  0.37455788     0.03700
C355        C  0.51866953  0.81692790  0.37100106    -0.12800
C356        C  0.49052472  0.76468619  0.37460783    -0.08400
C357        C  0.51509462  0.74064688  0.38116920     0.07200
C358        C  0.56741134  0.76940660  0.38426160    -0.13500
S359        S  0.60592421  0.91376167  0.37218751    -0.30400
H360        H  0.49909740  0.83476522  0.36616541     0.11400
S361        S  0.48161220  0.67379917  0.38660892    -0.27500
H362        H  0.58621364  0.75094845  0.38955730     0.08600
H363        H  0.81508417  0.97649672  0.35930716     0.27100
H364        H  0.56451557  0.91669857  0.36629939     0.21900
H365        H  0.43912298  0.65954179  0.37113434     0.27200
H366        H  0.59010948  0.83213700  0.43253424     0.16000
C367        C  0.10729351  0.83392063  0.36322742    -0.11300
C368        C  0.15429115  0.85473542  0.37550626     0.15300
C369        C  0.17570260  0.90045629  0.38999055     0.02200
C370        C  0.14976329  0.92423383  0.39183633    -0.15600
C371        C  0.10248065  0.90349125  0.37994627    -0.10400
C372        C  0.08140054  0.85797869  0.36506617     0.08900
C373        C  0.18010119  0.82797779  0.37301298     0.09900
S374        S  0.23556013  0.93013570  0.40686737    -0.24800
H375        H  0.16611851  0.95864145  0.40339815     0.20200
S376        S  0.02305048  0.82986591  0.34701179    -0.30500
H377        H  0.09103641  0.79902044  0.35184687     0.10500
C378        C  0.16484573  0.78535527  0.38835069     0.03700
C379        C  0.19152265  0.76221032  0.38638042    -0.12800
C380        C  0.23361881  0.78109685  0.36962290    -0.08400
C381        C  0.24918659  0.82431102  0.35449261     0.07200
C382        C  0.22187817  0.84687776  0.35609895    -0.13500
S383        S  0.11242784  0.76147556  0.41109126    -0.30400
H384        H  0.17956876  0.72905956  0.39788747     0.11400
S385        S  0.30493792  0.85408694  0.33408140    -0.27500
H386        H  0.23404639  0.88023566  0.34467258     0.08600
H387        H  0.03228494  0.87601073  0.33833216     0.27100
H388        H  0.11543530  0.72244051  0.42138909     0.21900
H389        H  0.33267640  0.84319580  0.35085406     0.27200
H390        H  0.23234827  0.88553447  0.41293524     0.16000
C391        C  0.84833480  0.26336521  0.22850749    -0.11300
C392        C  0.82863165  0.21970374  0.21251860     0.15300
C393        C  0.78552233  0.20352314  0.19685164     0.02200
C394        C  0.76151436  0.22939409  0.19870561    -0.15600
C395        C  0.77982575  0.27159596  0.21562791    -0.10400
C396        C  0.82479833  0.28981886  0.22989254     0.08900
C397        C  0.85083156  0.18928516  0.21437182     0.09900
S398        S  0.75840412  0.14923868  0.17480857    -0.24800
H399        H  0.72715024  0.21548634  0.18759349     0.20200
S400        S  0.85381347  0.34664028  0.24997240    -0.30500
H401        H  0.88170958  0.27634641  0.24034649     0.10500
C402        C  0.89906320  0.20620083  0.20429425     0.03700
C403        C  0.91781500  0.17541685  0.20638857    -0.12800
C404        C  0.88946790  0.12805784  0.21851970    -0.08400
C405        C  0.84185681  0.11228118  0.22947799     0.07200
C406        C  0.82286101  0.14253512  0.22685606    -0.13500
S407        S  0.93601503  0.26620185  0.18803164    -0.30400
H408        H  0.95441434  0.18797278  0.19815326     0.11400
S409        S  0.80468364  0.05592988  0.24860012    -0.27500
H410        H  0.78628277  0.13005177  0.23516465     0.08600
H411        H  0.83406539  0.36945166  0.23561395     0.27100
H412        H  0.97642940  0.26222439  0.18053357     0.21900
H413        H  0.84630186  0.06093358  0.26144563     0.27200
H414        H  0.80358889  0.15261426  0.16935080     0.16000
C415        C  0.78033344  0.59483633  0.25025097    -0.11300
C416        C  0.83189321  0.62464625  0.24432453     0.15300
C417        C  0.85958680  0.60194572  0.24292569     0.02200
C418        C  0.83410206  0.54940152  0.24460822    -0.15600
C419        C  0.78190526  0.51934806  0.24865058    -0.10400
C420        C  0.75529938  0.54262073  0.25272778     0.08900
C421        C  0.85328916  0.67694421  0.23556608     0.09900
S422        S  0.92666802  0.63756309  0.23724345    -0.24800
H423        H  0.85456979  0.53152809  0.24153442     0.20200
S424        S  0.68830976  0.50667173  0.25823167    -0.30500
H425        H  0.75888859  0.61198517  0.25146265     0.10500
C426        C  0.86130841  0.68861313  0.20839753     0.03700
C427        C  0.87862777  0.73753553  0.20041281    -0.12800
C428        C  0.88812455  0.77569891  0.21889245    -0.08400
C429        C  0.88062466  0.76377298  0.24627619     0.07200
C430        C  0.86251788  0.71448726  0.25419852    -0.13500
S431        S  0.84731784  0.64050988  0.18364250    -0.30400
H432        H  0.88364087  0.74541217  0.17945033     0.11400
S433        S  0.89438193  0.80948019  0.27221230    -0.27500
H434        H  0.85610379  0.70541738  0.27510123     0.08600
H435        H  0.68852926  0.47406087  0.27652222     0.27100
H436        H  0.85579745  0.66969318  0.16113906     0.21900
H437        H  0.94144050  0.84650008  0.26153058     0.27200
H438        H  0.93671943  0.68404874  0.24687033     0.16000
C439        C  0.30235084  0.11548202  0.20776151    -0.11300
C440        C  0.32660333  0.15764907  0.22492919     0.15300
C441        C  0.29758324  0.17198453  0.23892361     0.02200
C442        C  0.24572716  0.14592506  0.23424636    -0.15600
C443        C  0.22160111  0.10476866  0.21633780    -0.10400
C444        C  0.25020410  0.08824519  0.20381351     0.08900
C445        C  0.38238695  0.18805854  0.22634362     0.09900
S446        S  0.32466436  0.22366724  0.26267380    -0.24800
H447        H  0.22445215  0.15890986  0.24422197     0.20200
S448        S  0.22259902  0.03248469  0.18286183    -0.30500
H449        H  0.32433926  0.10391904  0.19718839     0.10500
C450        C  0.40909833  0.16865014  0.23688060     0.03700
C451        C  0.46185876  0.19921582  0.23786296    -0.12800
C452        C  0.48855602  0.24834529  0.22799418    -0.08400
C453        C  0.46185447  0.26746794  0.21707600     0.07200
C454        C  0.40905454  0.23718988  0.21646176    -0.13500
S455        S  0.37616946  0.10550464  0.24964475    -0.30400
H456        H  0.48273528  0.18476749  0.24610008     0.11400
S457        S  0.49463620  0.33112006  0.20509183    -0.27500
H458        H  0.38822727  0.25177289  0.20833352     0.08600
H459        H  0.17687827  0.00532506  0.19692382     0.27100
H460        H  0.41897967  0.10382949  0.25332169     0.21900
H461        H  0.45267640  0.32693851  0.19317138     0.27200
H462        H  0.36321678  0.21802830  0.27116889     0.16000
C463        C  0.80347404  0.11252707  0.50036627    -0.11300
C464        C  0.81710742  0.15285476  0.48365785     0.15300
C465        C  0.85789690  0.16986399  0.46593659     0.02200
C466        C  0.88446930  0.14661115  0.46546607    -0.15600
C467        C  0.87046026  0.10574299  0.48182805    -0.10400
C468        C  0.82988093  0.08898249  0.49977698     0.08900
C469        C  0.79025994  0.17857175  0.48606468     0.09900
S470        S  0.87769336  0.22081447  0.44331074    -0.24800
H471        H  0.91536183  0.15952546  0.45159267     0.20200
S472        S  0.81151487  0.03968320  0.52330633    -0.30500
H473        H  0.77275003  0.10005149  0.51430694     0.10500
C474        C  0.74374800  0.15939913  0.47331573     0.03700
C475        C  0.72235798  0.18791765  0.47381531    -0.12800
C476        C  0.74659284  0.23511289  0.48685259    -0.08400
C477        C  0.78762541  0.25112372  0.00279699     0.07200
C478        C  0.80840245  0.22214745  0.00229186    -0.13500
S479        S  0.71308892  0.09995940  0.45531744    -0.30400
H480        H  0.68712850  0.17405206  0.46368038     0.11400
S481        S  0.82350438  0.31217414  0.01895921    -0.27500
H482        H  0.84434900  0.23667471  0.01184947     0.08600
H483        H  0.86020051  0.05022118  0.52700099     0.27100
H484        H  0.67020204  0.09906412  0.44769923     0.21900
H485        H  0.81369357  0.33693870  0.99959133     0.27200
H486        H  0.82971923  0.21178480  0.43932033     0.16000
C487        C  0.83522810  0.68920853  0.48078098    -0.11300
C488        C  0.80527298  0.65996446  0.45908215     0.15300
C489        C  0.80559384  0.68391074  0.43577754     0.02200
C490        C  0.83708578  0.73630346  0.43431802    -0.15600
C491        C  0.86826053  0.76578029  0.45571395    -0.10400
C492        C  0.86701201  0.74181465  0.47927227     0.08900
C493        C  0.77725099  0.60455334  0.46049207     0.09900
S494        S  0.76805052  0.64969164  0.40692887    -0.24800
H495        H  0.83707498  0.75417261  0.41621762     0.20200
S496        S  0.90682153  0.77580383  0.50744606    -0.30500
H497        H  0.83527779  0.67072364  0.49863323     0.10500
C498        C  0.79691851  0.57805765  0.44907543     0.03700
C499        C  0.76952391  0.52551611  0.45099506    -0.12800
C500        C  0.72309722  0.49916147  0.46419062    -0.08400
C501        C  0.70353862  0.52821061  0.97632023     0.07200
C502        C  0.73010602  0.58052497  0.97388925    -0.13500
S503        S  0.85774617  0.61131830  0.43298822    -0.30400
H504        H  0.78491387  0.50483957  0.44313430     0.11400
S505        S  0.64753708  0.49779344  0.99653766    -0.27500
H506        H  0.71758014  0.60145120  0.98474028     0.08600
H507        H  0.94792520  0.81323028  0.49269061     0.27100
H508        H  0.85663543  0.56838929  0.42431641     0.21900
H509        H  0.62313087  0.45164305  0.98234940     0.27200
H510        H  0.72824693  0.60886276  0.42068878     0.16000
C511        C  0.40447954  0.22718257  0.48165669    -0.11300
C512        C  0.37310134  0.17703653  0.48958644     0.15300
C513        C  0.39457543  0.15121365  0.49863659     0.02200
C514        C  0.44622125  0.18960572  0.00031565    -0.15600
C515        C  0.47815884  0.22499394  0.48962946    -0.10400
C516        C  0.45676323  0.25159332  0.48164215     0.08900
C517        C  0.31865072  0.15115542  0.48465910     0.09900
S518        S  0.35503919  0.10330452  0.01207165    -0.24800
H519        H  0.46168957  0.16910419  0.00778489     0.20200
S520        S  0.49320913  0.31591901  0.47051218    -0.30500
H521        H  0.38792494  0.24690301  0.47452267     0.10500
C522        C  0.28859665  0.16331572  0.49916110     0.03700
C523        C  0.23824405  0.14142371  0.49162554    -0.12800
C524        C  0.21752216  0.10784434  0.46972064    -0.08400
C525        C  0.24768352  0.09442115  0.45606672     0.07200
C526        C  0.29779447  0.11654007  0.46346890    -0.13500
S527        S  0.31592583  0.22927571  0.02190417    -0.30400
H528        H  0.21620500  0.16827215  0.99825637     0.11400
S529        S  0.22494599  0.04913159  0.42920458    -0.27500
H530        H  0.32106023  0.10715812  0.45238562     0.08600
H531        H  0.54065136  0.32850774  0.47871634     0.27100
H532        H  0.27154782  0.22747694  0.02746399     0.21900
H533        H  0.17812931  0.01560727  0.44130659     0.27200
H534        H  0.31405655  0.10638728  0.01944223     0.16000
C535        C  0.69872164  0.33345202  0.38133312    -0.11300
C536        C  0.65361563  0.29781029  0.36873295     0.15300
C537        C  0.61190467  0.26161450  0.38346696     0.02200
C538        C  0.61535115  0.26411233  0.41097110    -0.15600
C539        C  0.65751523  0.30496002  0.42396405    -0.10400
C540        C  0.70152776  0.33745312  0.40885929     0.08900
C541        C  0.65162946  0.30132885  0.34021154     0.09900
S542        S  0.55301394  0.21282889  0.36853884    -0.24800
H543        H  0.58465590  0.23377131  0.42188620     0.20200
S544        S  0.76182606  0.38357691  0.42394126    -0.30500
H545        H  0.73124240  0.35920288  0.36938331     0.10500
C546        C  0.65225773  0.34190395  0.32942427     0.03700
C547        C  0.65721273  0.34818597  0.30217428    -0.12800
C548        C  0.66296582  0.31555610  0.28561068    -0.08400
C549        C  0.65294472  0.26989694  0.29639282     0.07200
C550        C  0.65060062  0.26493316  0.32381951    -0.13500
S551        S  0.64625973  0.38527780  0.35034250    -0.30400
H552        H  0.65603939  0.37846515  0.29373810     0.11400
S553        S  0.63618935  0.21405261  0.27730035    -0.27500
H554        H  0.64639454  0.23187889  0.33246037     0.08600
H555        H  0.78752853  0.40798602  0.40051599     0.27100
H556        H  0.65073786  0.41727262  0.33005272     0.21900
H557        H  0.60937447  0.22051548  0.25763840     0.27200
H558        H  0.55514517  0.24108352  0.34685190     0.16000
C559        C  0.66163423  0.31869724  0.12919322    -0.11300
C560        C  0.67873990  0.36646938  0.11978230     0.15300
C561        C  0.68727694  0.40522000  0.13729956     0.02200
C562        C  0.68156911  0.39592243  0.16434021    -0.15600
C563        C  0.67204391  0.35046062  0.17429037    -0.10400
C564        C  0.65671522  0.30947738  0.15615135     0.08900
C565        C  0.68300523  0.37214545  0.09123972     0.09900
S566        S  0.70597226  0.46694651  0.12646968    -0.24800
H567        H  0.68394003  0.42445102  0.17748391     0.20200
S568        S  0.63026725  0.24434658  0.16466856    -0.30500
H569        H  0.65174933  0.28808567  0.11519861     0.10500
C570        C  0.71924487  0.36865376  0.07734910     0.03700
C571        C  0.71441453  0.36122693  0.05004604    -0.12800
C572        C  0.67206954  0.35351537  0.03657781    -0.08400
C573        C  0.64088505  0.36628250  0.05037171     0.07200
C574        C  0.64585835  0.37346947  0.07776271    -0.13500
S575        S  0.77062642  0.37199927  0.09453688    -0.30400
H576        H  0.74428977  0.36178557  0.03940317     0.11400
S577        S  0.59521357  0.37647867  0.03612876    -0.27500
H578        H  0.61954683  0.37863338  0.08886872     0.08600
H579        H  0.60751683  0.24311220  0.18876616     0.27100
H580        H  0.78786213  0.35692735  0.07282450     0.21900
H581        H  0.60445030  0.37443075  0.00930097     0.27200
H582        H  0.73196444  0.46740145  0.10359361     0.16000
C583        C  0.66452386  0.33205712  0.50689834     0.30100
C584        C  0.65611485  0.31524609  0.95466753     0.30100
C585        C  0.69713781  0.31363820  0.49551175    -0.06100
C586        C  0.61189583  0.28936850  0.49709180    -0.06900
C587        C  0.67827809  0.37630731  0.48904109    -0.06700
C588        C  0.69130747  0.30533399  0.96963530    -0.06100
C589        C  0.60658718  0.28528477  0.97067335    -0.06900
C590        C  0.67439601  0.36932152  0.96247229    -0.06700
C591        C  0.70736274  0.27381585  0.96421535    -0.32100
N592        N  0.72161915  0.26398675  0.98720956     0.14400
C593        C  0.71473361  0.28575509  0.50550636    -0.32100
H594        H  0.71671066  0.27840098  0.52617426     0.16300
C595        C  0.55646624  0.26498296  0.96500917    -0.31100
N596        N  0.53091885  0.24613102  0.48727453     0.13100
C597        C  0.56405784  0.26425288  0.50764095    -0.31100
C598        C  0.68633419  0.41238280  0.94960905    -0.31400
N599        N  0.69993663  0.44658919  0.46874634     0.13600
H600        H  0.68559030  0.41683864  0.92841630     0.16200
C601        C  0.69575716  0.42634216  0.49281137    -0.31400
H602        H  0.70563826  0.44687945  0.51163663     0.16200
H603        H  0.55396415  0.26334896  0.52826122     0.16200
H604        H  0.70623278  0.25706390  0.94505864     0.16300
H605        H  0.53981600  0.26047351  0.94567258     0.16200
C606        C  0.67298453  0.33010574  0.75771543     0.30100
C607        C  0.67706588  0.34617336  0.70459705     0.30100
C608        C  0.70085332  0.31174483  0.74106438    -0.06100
C609        C  0.62257642  0.30773596  0.74368395    -0.06900
C610        C  0.70225869  0.38605272  0.74969326    -0.06700
C611        C  0.70264499  0.31979343  0.71394111    -0.06100
C612        C  0.62455435  0.31623703  0.71689446    -0.06900
C613        C  0.70449264  0.39460032  0.72240971    -0.06700
C614        C  0.73524955  0.30859634  0.70282293    -0.32100
N615        N  0.75287019  0.29367640  0.72237426     0.14400
C616        C  0.73365089  0.29717528  0.74588480    -0.32100
H617        H  0.74309548  0.28972491  0.76506450     0.16300
C618        C  0.57576481  0.29476172  0.70828404    -0.31100
N619        N  0.54447837  0.27349809  0.72940057     0.13100
C620        C  0.57269769  0.28100104  0.75116247    -0.31100
C621        C  0.73634611  0.44621109  0.71940558    -0.31400
N622        N  0.75136521  0.46850048  0.74376006     0.13600
H623        H  0.74932523  0.46675687  0.70107569     0.16200
C624        C  0.73240252  0.43232930  0.76233318    -0.31400
H625        H  0.74056342  0.43952931  0.78339747     0.16200
H626        H  0.55802627  0.26817391  0.77085916     0.16200
H627        H  0.74602084  0.31169500  0.68216377     0.16300
H628        H  0.56375647  0.29396511  0.68801856     0.16200
C629        C  0.08042223  0.93341942  0.88619763     0.42600
N630        N  0.02150502  0.94584441  0.89258419     0.01500
C631        C  0.04329078  0.16748989  0.92890928    -0.06400
H632        H  0.12575350  0.10791461  0.99565333     0.07000
C633        C  0.95017369  0.96403488  0.52211541    -0.06800
Co634      Co  0.05929674  0.05402907  0.89947610     0.74200
N635        N  0.08919793  0.08300132  0.95747800    -0.25900
Co636      Co  0.02095501  0.07613029  0.96294613     0.74100
C637        C  0.98947696  0.00400124  0.54007705     0.42700
N638        N  0.91953702  0.89666756  0.95215091     0.01100
N639        N  0.00092786  0.02833068  0.99731014     0.01200
N640        N  0.06781533  0.15237382  0.88957219    -0.46800
H641        H  0.14184831  0.01826326  0.89010828     0.06900
N642        N  0.10366831  0.07569770  0.93400634     0.01500
N643        N  0.95115937  0.06675571  0.96690745     0.01200
C644        C  0.89170837  0.07741144  0.97613146     0.42800
N645        N  0.93349979  0.88995999  0.92838710    -0.25400
C646        C  0.02799448  0.04869563  0.83838748    -0.06300
N647        N  0.02993211  0.91001356  0.88781799    -0.46500
N648        N  0.94202605  0.10184465  0.97257129    -0.46700
C649        C  0.98954490  0.00908680  0.82009415     0.42600
N650        N  0.05316205  0.11510781  0.90629605     0.01500
N651        N  0.88421843  0.93147144  0.90172807    -0.25400
N652        N  0.06324461  0.99117855  0.89428451    -0.25900
N653        N  0.87033204  0.93859362  0.92544293     0.01100
H654        H  0.84563839  0.90465350  0.86413274     0.07000
H655        H  0.83138731  0.99212239  0.97259182     0.07000
N656        N  0.03914109  0.12322598  0.92974104    -0.26000
N657        N  0.95983987  0.98212475  0.99589511    -0.25600
N658        N  0.97312809  0.98523246  0.86201230     0.01500
C659        C  0.16604152  0.09840604  0.95997521     0.42900
C660        C  0.92614414  0.84441351  0.92727083    -0.06800
N661        N  0.90996567  0.02094002  0.96620570    -0.25600
H662        H  0.91481072  0.93045765  0.52787660     0.07000
N663        N  0.14959951  0.08503030  0.93471323    -0.46800
H664        H  0.92898418  0.82652591  0.90941082     0.07000
C665        C  0.80742962  0.91684950  0.89996389     0.42700
C666        C  0.10274687  0.98722660  0.89073432    -0.06300
Co667      Co  0.95220003  0.93755700  0.89605627     0.73800
N668        N  0.90084421  0.85622569  0.96708443    -0.46500
C669        C  0.06313003  0.18716184  0.90245106     0.43000
N670        N  0.95740950  0.97097568  0.83678449    -0.46500
Co671      Co  0.91450611  0.95859973  0.96006362     0.73900
C672        C  0.87019703  0.02372740  0.97160827    -0.06800
C673        C  0.12626751  0.09770912  0.97506904    -0.06400
N674        N  0.01494759  0.03076591  0.86355969    -0.25900
N675        N  0.02066918  0.04183435  0.52308843    -0.46700
H676        H  0.03617373  0.18509481  0.94540128     0.07000
C677        C  0.84662899  0.91701741  0.88444261    -0.06800
Cl678      Cl  0.98674824  0.00657752  0.92969655    -0.49800
C679        C  0.90422488  0.82174581  0.95274110     0.42700
H680        H  0.06344794  0.08256359  0.83303345     0.06900
N681        N  0.82476832  0.93008158  0.92509291    -0.46500
C682        C  0.07230678  0.91866299  0.64268228     0.42600
N683        N  0.01825729  0.93870319  0.64471806     0.01500
C684        C  0.06854903  0.17390523  0.67978984    -0.06400
H685        H  0.13472708  0.10032077  0.74594986     0.07000
C686        C  0.94901002  0.96859743  0.77094033    -0.06800
Co687      Co  0.06559262  0.04939004  0.64987856     0.74200
N688        N  0.09697669  0.07680911  0.70801864    -0.25900
Co689      Co  0.03266509  0.07818205  0.71289110     0.74100
C690        C  0.98910879  0.00645780  0.78918585     0.42700
N691        N  0.91776193  0.90022776  0.70399151     0.01100
N692        N  0.00671561  0.03025139  0.74726746     0.01200
N693        N  0.08778790  0.15453144  0.64001856    -0.46800
H694        H  0.13879743  0.00199624  0.64417796     0.06900
N695        N  0.10965112  0.06736577  0.68453634     0.01500
N696        N  0.96670008  0.07688425  0.71542601     0.01200
C697        C  0.91314983  0.09754581  0.71888211     0.42800
N698        N  0.92987625  0.89019295  0.68054361    -0.25400
C699        C  0.03269397  0.04588424  0.58882707    -0.06300
N700        N  0.02250148  0.89961630  0.64293993    -0.46500
N701        N  0.96287704  0.11616164  0.71790462    -0.46700
C702        C  0.99181974  0.00734887  0.57099991     0.42600
N703        N  0.06812252  0.11589277  0.65637088     0.01500
N704        N  0.88824692  0.93804721  0.65196584    -0.25400
N705        N  0.06210669  0.98224234  0.64539565    -0.25900
N706        N  0.87466707  0.94758315  0.67509473     0.01100
H707        H  0.85312280  0.91520966  0.61349463     0.07000
H708        H  0.84618444  0.01452135  0.71486754     0.07000
N709        N  0.05690734  0.12646602  0.67998796    -0.26000
N710        N  0.96278168  0.98646756  0.74579820    -0.25600
N711        N  0.97676724  0.98430188  0.61303700     0.01500
C712        C  0.17069723  0.08439034  0.71045691     0.42900
C713        C  0.92583579  0.84618801  0.68185573    -0.06800
N714        N  0.92255850  0.03352954  0.71430401    -0.25600
H715        H  0.91244289  0.93620047  0.77632806     0.07000
N716        N  0.15350874  0.07184905  0.68525390    -0.46800
H717        H  0.93253525  0.82806549  0.66551704     0.07000
C718        C  0.81613692  0.93264080  0.64775427     0.42700
C719        C  0.09876044  0.97354360  0.64383748    -0.06300
Co720      Co  0.95238319  0.93714215  0.64743217     0.73800
N721        N  0.90525009  0.86447101  0.72151691    -0.46500
C722        C  0.08870456  0.19235327  0.65332472     0.43000
N723        N  0.95917834  0.97045869  0.58807524    -0.46500
Co724      Co  0.91850721  0.96593597  0.70999646     0.73900
C725        C  0.88622408  0.04266973  0.71611707    -0.06800
C726        C  0.13344215  0.08836858  0.72554377    -0.06400
N727        N  0.02036474  0.02846074  0.61414786    -0.25900
N728        N  0.02299698  0.04352978  0.77248418    -0.46700
H729        H  0.06697450  0.19437997  0.69680544     0.07000
C730        C  0.85352036  0.92775451  0.63369392    -0.06800
Cl731      Cl  0.99229735  0.00782871  0.68006297    -0.49800
C732        C  0.91025723  0.82933361  0.70904079     0.42700
H733        H  0.06873617  0.07846964  0.58298878     0.06900
N734        N  0.83124588  0.94400997  0.67341631    -0.46500
C735        C  0.31179170  0.68533198  0.83860348     0.30100
C736        C  0.30198576  0.67449042  0.89228672     0.30100
C737        C  0.29038585  0.71248839  0.85293362    -0.06100
C738        C  0.27628511  0.63028941  0.84824584    -0.06900
C739        C  0.36016735  0.70197105  0.85397346    -0.06700
C740        C  0.28697237  0.70861120  0.88031268    -0.06100
C741        C  0.27105112  0.62597871  0.87572892    -0.06900
C742        C  0.35581765  0.69885015  0.88143429    -0.06700
C743        C  0.26989544  0.73793482  0.88916935    -0.32100
N744        N  0.26039296  0.75692159  0.86790264     0.14400
C745        C  0.27254445  0.74136862  0.84554211    -0.32100
H746        H  0.26789616  0.74962612  0.82543013     0.16300
C747        C  0.24095963  0.57592416  0.88170484    -0.31100
N748        N  0.22874770  0.54867041  0.85882367     0.13100
C749        C  0.25034697  0.58103502  0.83822699    -0.31100
C750        C  0.40410303  0.72224425  0.89142360    -0.31400
N751        N  0.43632041  0.73541632  0.87069222     0.13600
H752        H  0.41525993  0.72973960  0.91202886     0.16200
C753        C  0.41007005  0.72283038  0.84775946    -0.31400
H754        H  0.42659184  0.72997770  0.82810605     0.16200
H755        H  0.24862685  0.56903718  0.81785801     0.16200
H756        H  0.26406316  0.74493669  0.90960838     0.16300
H757        H  0.23082839  0.56023603  0.90139952     0.16200
C758        C  0.31644493  0.68832028  0.59010416     0.30100
C759        C  0.33498311  0.69793264  0.64323757     0.30100
C760        C  0.29029986  0.70835917  0.60669322    -0.06100
C761        C  0.30042314  0.63883329  0.60445673    -0.06900
C762        C  0.37213708  0.72234321  0.59821261    -0.06700
C763        C  0.29884312  0.71253553  0.63373612    -0.06100
C764        C  0.30832473  0.64371839  0.63186835    -0.06900
C765        C  0.38096819  0.72816427  0.62536132    -0.06700
C766        C  0.26869058  0.72684322  0.64501523    -0.32100
N767        N  0.24399153  0.73347229  0.62542449     0.14400
C768        C  0.25723467  0.72244528  0.60183144    -0.32100
H769        H  0.24467236  0.72540614  0.58251273     0.16300
C770        C  0.28635188  0.59573840  0.64160016    -0.31100
N771        N  0.26960964  0.56259130  0.62081507     0.13100
C772        C  0.27816023  0.58826561  0.59805181    -0.31100
C773        C  0.43169777  0.75085361  0.62923688    -0.31400
N774        N  0.45389687  0.75773816  0.60526896     0.13600
H775        H  0.45078266  0.75855693  0.64818106     0.16200
C776        C  0.41808803  0.73951775  0.58610004    -0.31400
H777        H  0.42466795  0.73685674  0.56521725     0.16200
H778        H  0.26824635  0.57087855  0.57847541     0.16200
H779        H  0.26463186  0.73203415  0.66603505     0.16300
H780        H  0.28250077  0.58538277  0.66221220     0.16200
C781        C  0.37119606  0.75093830  0.77295319    -0.11300
C782        C  0.33962909  0.71269479  0.75499775     0.15300
C783        C  0.29505323  0.66903837  0.76380483     0.02200
C784        C  0.28596711  0.66208009  0.79087372    -0.15600
C785        C  0.32025370  0.69782028  0.80943701    -0.10400
C786        C  0.36047260  0.74573756  0.79993874     0.08900
C787        C  0.35327959  0.71887140  0.72705054     0.09900
S788        S  0.24828038  0.62101139  0.74152860    -0.24800
H789        H  0.25065168  0.62948175  0.79714912     0.20200
S790        S  0.40016539  0.80330171  0.81935202    -0.30500
H791        H  0.40407941  0.78558035  0.76574732     0.10500
C792        C  0.35225817  0.75463708  0.71176883     0.03700
C793        C  0.35296048  0.75023003  0.68431164    -0.12800
C794        C  0.34963260  0.70820469  0.67222069    -0.08400
C795        C  0.36340003  0.68065219  0.68756605     0.07200
C796        C  0.36306659  0.68509979  0.71508314    -0.13500
S797        S  0.34497530  0.80240584  0.72678495    -0.30400
H798        H  0.35281687  0.77790997  0.67228317     0.11400
S799        S  0.38570346  0.64286406  0.67462304    -0.27500
H800        H  0.36873802  0.66095110  0.72731559     0.08600
H801        H  0.37528971  0.79051391  0.84370626     0.27100
H802        H  0.34356876  0.82417058  0.70304180     0.21900
H803        H  0.39539648  0.66012077  0.64856489     0.27200
H804        H  0.25677679  0.65349663  0.72063546     0.16000
C805        C  0.32305871  0.71859521  0.51652521    -0.11300
C806        C  0.28437566  0.66815480  0.00543681     0.15300
C807        C  0.25236747  0.63275451  0.52386667     0.02200
C808        C  0.26107484  0.64118293  0.55099586    -0.15600
C809        C  0.30428985  0.68549740  0.56097624    -0.10400
C810        C  0.33152020  0.72704249  0.54368020     0.08900
C811        C  0.28294807  0.66176686  0.97679774     0.09900
S812        S  0.20089322  0.56701424  0.01051333    -0.24800
H813        H  0.23407851  0.61240426  0.56425708     0.20200
S814        S  0.37492675  0.79200514  0.55401717    -0.30500
H815        H  0.34373008  0.74668272  0.00275654     0.10500
C816        C  0.24884212  0.66513597  0.96122161     0.03700
C817        C  0.25321209  0.66432028  0.93374303    -0.12800
C818        C  0.29355720  0.66457432  0.92176778    -0.08400
C819        C  0.32088557  0.65095749  0.93759673     0.07200
C820        C  0.31709776  0.65255719  0.96507946    -0.13500
S821        S  0.20091840  0.67174809  0.97625364    -0.30400
H822        H  0.22516573  0.66383241  0.92165229     0.11400
S823        S  0.35682322  0.62613307  0.92531022    -0.27500
H824        H  0.34025856  0.64570280  0.97751287     0.08600
H825        H  0.35123164  0.78922379  0.57814195     0.27100
H826        H  0.18124449  0.67658157  0.95246558     0.21900
H827        H  0.33440859  0.60979034  0.90023975     0.27200
H828        H  0.21922134  0.56870818  0.98480241     0.16000
C829        C  0.18636370  0.33368885  0.65351573    -0.11300
C830        C  0.16958668  0.34867575  0.63231451     0.15300
C831        C  0.12857901  0.31145328  0.61673700     0.02200
C832        C  0.10383149  0.26054163  0.62354832    -0.15600
C833        C  0.11944566  0.24577236  0.64538918    -0.10400
C834        C  0.16226924  0.28279376  0.65999498     0.08900
C835        C  0.19380006  0.40347167  0.62820079     0.09900
S836        S  0.10491636  0.32654982  0.58860972    -0.24800
H837        H  0.07129717  0.23227600  0.61207425     0.20200
S838        S  0.18845124  0.26755836  0.68683580    -0.30500
H839        H  0.21829396  0.36204850  0.66531074     0.10500
C840        C  0.17282194  0.42913499  0.63911546     0.03700
C841        C  0.19854707  0.48159841  0.63646487    -0.12800
C842        C  0.24459990  0.50890718  0.62289648    -0.08400
C843        C  0.26544250  0.48313318  0.61184206     0.01800
C844        C  0.23985073  0.43074789  0.61456884    -0.13500
S845        S  0.11373607  0.39513331  0.65686288    -0.30400
H846        H  0.18293948  0.50168685  0.64490815     0.11400
S847        S  0.32530710  0.51530370  0.59494853    -0.27500
H848        H  0.25627892  0.41118882  0.60640546     0.08600
H849        H  0.17595259  0.22092659  0.67596062     0.27100
H850        H  0.10977165  0.43652410  0.66171643     0.21900
H851        H  0.34684858  0.56079445  0.60956602     0.27200
H852        H  0.15027474  0.37174897  0.58221659     0.16000
C853        C  0.58103221  0.78142976  0.61375727    -0.11300
C854        C  0.61106439  0.83401085  0.61107444     0.15300
C855        C  0.58910760  0.85903079  0.60135969     0.02200
C856        C  0.53724977  0.83151178  0.59642066    -0.15600
C857        C  0.50669751  0.77998415  0.60177801    -0.10400
C858        C  0.52903274  0.75432120  0.60955374     0.08900
C859        C  0.66374671  0.86176685  0.62073570     0.09900
S860        S  0.62405613  0.92632659  0.59717434    -0.24800
H861        H  0.51979614  0.85114306  0.59073711     0.20200
S862        S  0.49249210  0.68787537  0.61645667    -0.30500
H863        H  0.59781661  0.76186979  0.62071462     0.10500
C864        C  0.67432015  0.86184333  0.64791031     0.03700
C865        C  0.72446257  0.88676745  0.65637095    -0.12800
C866        C  0.76443504  0.91272149  0.63836824    -0.08400
C867        C  0.75369431  0.91588649  0.61153177     0.07200
C868        C  0.70359383  0.88922404  0.60287069    -0.13500
S869        S  0.62402352  0.83085272  0.67201069    -0.30400
H870        H  0.73247911  0.88492229  0.67698405     0.11400
S871        S  0.80172851  0.95519485  0.58767978    -0.27500
H872        H  0.69553716  0.89060683  0.58217762     0.08600
H873        H  0.44993831  0.67549258  0.60152984     0.27100
H874        H  0.65472712  0.84780365  0.69479542     0.21900
H875        H  0.83448171  0.99234657  0.60631484     0.27200
H876        H  0.65451954  0.93869832  0.61980195     0.16000
C877        C  0.09487427  0.81342131  0.64840835    -0.11300
C878        C  0.13988345  0.83358095  0.63412307     0.15300
C879        C  0.16215909  0.88139648  0.62253778     0.02200
C880        C  0.13962764  0.90841293  0.62602299    -0.15600
C881        C  0.09477220  0.88859974  0.64050422    -0.10400
C882        C  0.07249637  0.84061071  0.65207439     0.08900
C883        C  0.16474548  0.80571840  0.63338731     0.09900
S884        S  0.21960452  0.91041001  0.60338901    -0.24800
H885        H  0.15696200  0.94495835  0.61695437     0.20200
S886        S  0.01791812  0.81341480  0.67332375    -0.30500
H887        H  0.07821884  0.77712607  0.65769421     0.10500
C888        C  0.20712972  0.82113711  0.64932895     0.03700
C889        C  0.23183386  0.79596787  0.64681389    -0.12800
C890        C  0.21442085  0.75487207  0.62905906    -0.08400
C891        C  0.16969581  0.73737181  0.61450033     0.07200
C892        C  0.14584978  0.76344104  0.61650100    -0.13500
S893        S  0.22986887  0.87306003  0.67279507    -0.30400
H894        H  0.26567627  0.80918359  0.65815184     0.11400
S895        S  0.13994686  0.68099132  0.59403487    -0.27500
H896        H  0.11232787  0.75070352  0.60487419     0.08600
H897        H  0.03239624  0.85921254  0.68617380     0.27100
H898        H  0.26705955  0.86850113  0.68452707     0.21900
H899        H  0.15541474  0.65573753  0.60968387     0.27200
H900        H  0.21486662  0.86563351  0.59489868     0.16000
C901        C  0.19262286  0.41500214  0.85102558    -0.11300
C902        C  0.14738914  0.38958749  0.86547811     0.15300
C903        C  0.12668549  0.41645498  0.87494645     0.02200
C904        C  0.15296801  0.46843444  0.87121147    -0.15600
C905        C  0.19936559  0.49446003  0.85785632    -0.10400
C906        C  0.21894208  0.46729389  0.84716666     0.08900
C907        C  0.12684668  0.33742219  0.87404485     0.09900
S908        S  0.06821958  0.38690697  0.89317245    -0.24800
H909        H  0.13803868  0.48924494  0.87951737     0.20200
S910        S  0.27983195  0.49969598  0.83122499    -0.30500
H911        H  0.20861191  0.39429492  0.84416889     0.10500
C912        C  0.10054866  0.29550481  0.85663747     0.03700
C913        C  0.08048500  0.24683223  0.86638985    -0.12800
C914        C  0.08684696  0.23945523  0.89313740    -0.08400
C915        C  0.11594592  0.28209099  0.91001597     0.07200
C916        C  0.13449239  0.33023418  0.90046916    -0.13500
S917        S  0.09124166  0.30396701  0.82234486    -0.30400
H918        H  0.05907767  0.21438366  0.85331009     0.11400
S919        S  0.13436167  0.27854460  0.94318646    -0.27500
H920        H  0.15611732  0.36262393  0.91358955     0.08600
H921        H  0.28024147  0.45664633  0.82490579     0.27100
H922        H  0.06764152  0.25316804  0.81432316     0.21900
H923        H  0.14332791  0.24090773  0.93668604     0.27200
H924        H  0.04615639  0.33910493  0.88094073     0.16000
C925        C  0.68415481  0.86762826  0.86327753    -0.11300
C926        C  0.64934814  0.84159191  0.88373446     0.15300
C927        C  0.66690676  0.84061511  0.90915538     0.02200
C928        C  0.71844926  0.86485053  0.91349509    -0.15600
C929        C  0.75357698  0.89149283  0.89325596    -0.10400
C930        C  0.73610355  0.89334691  0.86786354     0.08900
C931        C  0.59486879  0.81471008  0.87816112     0.09900
S932        S  0.62557426  0.80963904  0.93703718    -0.24800
H933        H  0.73116868  0.86304377  0.93307361     0.20200
S934        S  0.77759071  0.92942293  0.84094040    -0.30500
H935        H  0.67071309  0.86858955  0.84374794     0.10500
C936        C  0.57180714  0.84096159  0.87312904     0.03700
C937        C  0.51933477  0.81379718  0.87014487    -0.12800
C938        C  0.48979101  0.76128734  0.87253593    -0.08400
C939        C  0.51290391  0.73504209  0.87715828     0.07200
C940        C  0.56521640  0.76198513  0.87980071    -0.13500
S941        S  0.60866223  0.90899416  0.87211315    -0.30400
H942        H  0.50083948  0.83326399  0.86662014     0.11400
S943        S  0.47767544  0.66757087  0.88071255    -0.27500
H944        H  0.58295150  0.74187385  0.88375277     0.08600
H945        H  0.81409164  0.96933651  0.85715503     0.27100
H946        H  0.56835681  0.91417636  0.86708214     0.21900
H947        H  0.43432104  0.65595156  0.86691167     0.27200
H948        H  0.58981576  0.82030962  0.92996113     0.16000
C949        C  0.11514022  0.84260868  0.86157990    -0.11300
C950        C  0.15807907  0.85851663  0.87692538     0.15300
C951        C  0.17582749  0.89958039  0.89487555     0.02200
C952        C  0.15042270  0.92399385  0.89696442    -0.15600
C953        C  0.10708108  0.90784651  0.88188005    -0.10400
C954        C  0.08967852  0.86700018  0.86372061     0.08900
C955        C  0.18331812  0.83132315  0.87390304     0.09900
S956        S  0.23024088  0.92243069  0.91582175    -0.24800
H957        H  0.16355398  0.95461170  0.91108971     0.20200
S958        S  0.03663833  0.84547943  0.84199166    -0.30500
H959        H  0.10174604  0.81134296  0.84767838     0.10500
C960        C  0.16573100  0.78646499  0.88763558     0.03700
C961        C  0.19168009  0.76263772  0.88514832    -0.12800
C962        C  0.23503986  0.78281551  0.86928913    -0.08400
C963        C  0.25252074  0.82782894  0.85547758     0.07200
C964        C  0.22618048  0.85134879  0.85773613    -0.13500
S965        S  0.11105758  0.76040595  0.90890165    -0.30400
H966        H  0.17824548  0.72799559  0.89554768     0.11400
S967        S  0.30934794  0.85838139  0.83591795    -0.27500
H968        H  0.23982462  0.88613092  0.84737573     0.08600
H969        H  0.04715090  0.89384154  0.83732168     0.27100
H970        H  0.11271789  0.72003309  0.91834175     0.21900
H971        H  0.33534766  0.84478104  0.85231116     0.27200
H972        H  0.22522935  0.87603777  0.91863526     0.16000
C973        C  0.85090046  0.26392535  0.72982173    -0.11300
C974        C  0.82902789  0.21857901  0.71511846     0.15300
C975        C  0.78373743  0.20058894  0.70111829     0.02200
C976        C  0.76041279  0.22710590  0.70302212    -0.15600
C977        C  0.78139134  0.27146896  0.71844774    -0.10400
C978        C  0.82782831  0.29077056  0.73136000     0.08900
C979        C  0.85198084  0.18888458  0.71642747     0.09900
S980        S  0.75306305  0.14336828  0.68118922    -0.24800
H981        H  0.72476118  0.21232038  0.69304951     0.20200
S982        S  0.85924118  0.34941557  0.74993194    -0.30500
H983        H  0.88577487  0.27806011  0.74047799     0.10500
C984        C  0.89849233  0.20500768  0.70423190     0.03700
C985        C  0.91790860  0.17477039  0.70566192    -0.12800
C986        C  0.89200391  0.12894648  0.71928257    -0.08400
C987        C  0.84653501  0.11422267  0.73251312     0.07200
C988        C  0.82669451  0.14381371  0.73054543    -0.13500
S989        S  0.93215304  0.26303098  0.68601192    -0.30400
H990        H  0.95287659  0.18632700  0.69562644     0.11400
S991        S  0.81353784  0.06008980  0.75357652    -0.27500
H992        H  0.79162982  0.13213942  0.74054505     0.08600
H993        H  0.83860739  0.37136502  0.73557733     0.27100
H994        H  0.97592543  0.26326879  0.68121620     0.21900
H995        H  0.85743044  0.06584199  0.76380275     0.27200
H996        H  0.79689639  0.14489480  0.67453439     0.16000
C997        C  0.78345483  0.59975819  0.75249506    -0.11300
C998        C  0.83428372  0.62757744  0.74494303     0.15300
C999        C  0.85951368  0.60263394  0.74147823     0.02200
C1000       C  0.83209114  0.54997212  0.74285146    -0.15600
C1001       C  0.78044105  0.52192482  0.74854555    -0.10400
C1002       C  0.75651620  0.54731824  0.75463626     0.08900
C1003       C  0.85667276  0.67991695  0.73608982     0.09900
S1004       S  0.92554991  0.63556221  0.73331028    -0.24800
H1005       H  0.85049999  0.53043751  0.73830574     0.20200
S1006       S  0.69038605  0.51406801  0.76229335    -0.30500
H1007       H  0.76388845  0.61866603  0.75518399     0.10500
C1008       C  0.86005310  0.69026768  0.70880998     0.03700
C1009       C  0.87818357  0.73928550  0.70077857    -0.12800
C1010       C  0.89357008  0.77886466  0.71933929    -0.08400
C1011       C  0.89161626  0.76857278  0.74675209     0.07200
C1012       C  0.87221640  0.71907771  0.75481923    -0.13500
S1013       S  0.83894904  0.64046087  0.68408647    -0.30400
H1014       H  0.87888766  0.74620449  0.67979828     0.11400
S1015       S  0.91478999  0.81682790  0.77231151    -0.27500
H1016       H  0.86990570  0.71112323  0.77581691     0.08600
H1017       H  0.69068582  0.48033226  0.77971063     0.27100
H1018       H  0.85570212  0.67134363  0.66165815     0.21900
H1019       H  0.95733068  0.85280968  0.75778571     0.27200
H1020       H  0.93914763  0.68251596  0.74418335     0.16000
C1021       C  0.30395960  0.11493584  0.71003398    -0.11300
C1022       C  0.32854640  0.15756755  0.72687990     0.15300
C1023       C  0.29991867  0.17314694  0.74022911     0.02200
C1024       C  0.24811862  0.14741733  0.73539569    -0.15600
C1025       C  0.22379111  0.10579678  0.71779025    -0.10400
C1026       C  0.25197382  0.08834086  0.70579994     0.08900
C1027       C  0.38432319  0.18717164  0.72833436     0.09900
S1028       S  0.32733414  0.22623774  0.76311894    -0.24800
H1029       H  0.22708524  0.16117506  0.74487376     0.20200
S1030       S  0.22406183  0.03235967  0.68499715    -0.30500
H1031       H  0.32563031  0.10261456  0.69980436     0.10500
C1032       C  0.41036854  0.16648036  0.73819951     0.03700
C1033       C  0.46317033  0.19580474  0.73847968    -0.12800
C1034       C  0.49045614  0.24503484  0.72880823    -0.08400
C1035       C  0.46450610  0.26577831  0.71902088     0.07200
C1036       C  0.41171018  0.23655810  0.71876877    -0.13500
S1037       S  0.37661946  0.10336845  0.75108104    -0.30400
H1038       H  0.48364584  0.18041457  0.74611895     0.11400
S1039       S  0.49847487  0.33023383  0.70817523    -0.27500
H1040       H  0.39144468  0.25217435  0.71116438     0.08600
H1041       H  0.17787345  0.00594544  0.69868189     0.27100
H1042       H  0.41883667  0.10057548  0.75445629     0.21900
H1043       H  0.45650033  0.32896388  0.69846823     0.27200
H1044       H  0.36696076  0.22228318  0.77158575     0.16000
C1045       C  0.79761476  0.10831554  0.00019549    -0.11300
C1046       C  0.81212661  0.15067532  0.98494589     0.15300
C1047       C  0.85347124  0.16927551  0.96744131     0.02200
C1048       C  0.87954798  0.14552232  0.96568583    -0.15600
C1049       C  0.86456953  0.10255732  0.98049044    -0.10400
C1050       C  0.82357773  0.08430331  0.99832413     0.08900
C1051       C  0.78498026  0.17612901  0.98822008     0.09900
S1052       S  0.87446244  0.22281025  0.94655896    -0.24800
H1053       H  0.91088596  0.15982134  0.95199524     0.20200
S1054       S  0.80428237  0.03256460  0.02026979    -0.30500
H1055       H  0.76648071  0.09450226  0.01398050     0.10500
C1056       C  0.73844879  0.15739678  0.97556859     0.03700
C1057       C  0.71731014  0.18618965  0.97628065    -0.12800
C1058       C  0.74173073  0.23330244  0.98943921    -0.08400
C1059       C  0.79273901  0.25362425  0.50004046     0.07200
C1060       C  0.81372088  0.22491031  0.49978611    -0.13500
S1061       S  0.70750953  0.09822960  0.95729809    -0.30400
H1062       H  0.68220553  0.17268842  0.96609280     0.11400
S1063       S  0.82847577  0.31510522  0.51575789    -0.27500
H1064       H  0.84970936  0.23974039  0.50936711     0.08600
H1065       H  0.85304090  0.04348038  0.02428718     0.27100
H1066       H  0.66567162  0.09862046  0.94898857     0.21900
H1067       H  0.81716138  0.33894407  0.49655330     0.27200
H1068       H  0.82665673  0.21415058  0.94247067     0.16000
C1069       C  0.83832318  0.68812040  0.97750144    -0.11300
C1070       C  0.80237928  0.66160825  0.95741320     0.15300
C1071       C  0.79823435  0.68817575  0.93665287     0.02200
C1072       C  0.83139802  0.74053217  0.93594585    -0.15600
C1073       C  0.86850856  0.76705397  0.95559859    -0.10400
C1074       C  0.87171926  0.74051977  0.97669650     0.08900
C1075       C  0.77290439  0.60615559  0.95769380     0.09900
S1076       S  0.75298726  0.65760008  0.91001517    -0.24800
H1077       H  0.82845401  0.76073394  0.91979181     0.20200
S1078       S  0.91882725  0.77081586  0.00243623    -0.30500
H1079       H  0.84164934  0.66758270  0.99333577     0.10500
C1080       C  0.78888510  0.57905480  0.94319334     0.03700
C1081       C  0.76251731  0.52672896  0.94582168    -0.12800
C1082       C  0.72094444  0.50125657  0.96286090    -0.08400
C1083       C  0.70271506  0.52552933  0.47488550     0.07200
C1084       C  0.73025007  0.57809182  0.47319652    -0.13500
S1085       S  0.84428126  0.61139342  0.92241284    -0.30400
H1086       H  0.77550841  0.50568608  0.93558016     0.11400
S1087       S  0.64169451  0.49396102  0.49057377    -0.27500
H1088       H  0.71486335  0.59845554  0.48157000     0.08600
H1089       H  0.95639819  0.80993275  0.98680157     0.27100
H1090       H  0.84636816  0.56923450  0.91627952     0.21900
H1091       H  0.62157421  0.44735297  0.47726205     0.27200
H1092       H  0.71744137  0.61411822  0.92382735     0.16000
C1093       C  0.40680279  0.24174480  0.97983920    -0.11300
C1094       C  0.37414509  0.19263189  0.98899377     0.15300
C1095       C  0.39410486  0.16660696  0.99981383     0.02200
C1096       C  0.44692718  0.17552495  0.49852845    -0.15600
C1097       C  0.47874912  0.23782421  0.99013034    -0.10400
C1098       C  0.45890711  0.26471071  0.98025883     0.08900
C1099       C  0.32005293  0.16715072  0.98324966     0.09900
S1100       S  0.35719600  0.08696804  0.50969482    -0.24800
H1101       H  0.46360113  0.15536338  0.50470111     0.20200
S1102       S  0.49726920  0.32732180  0.96699710    -0.30500
H1103       H  0.39141316  0.26153536  0.97125993     0.10500
C1104       C  0.28987774  0.18101678  0.99614258     0.03700
C1105       C  0.23921412  0.15698071  0.98872093    -0.12800
C1106       C  0.21844864  0.11979699  0.96845764    -0.08400
C1107       C  0.24905349  0.10575488  0.95593255     0.07200
C1108       C  0.29939417  0.12982725  0.96330252    -0.13500
S1109       S  0.31458506  0.20692501  0.52707674    -0.30400
H1110       H  0.21562682  0.15189090  0.50235454     0.11400
S1111       S  0.22651726  0.05701300  0.93075035    -0.27500
H1112       H  0.32288504  0.11943784  0.95334623     0.08600
H1113       H  0.54325999  0.34014623  0.97778776     0.27100
H1114       H  0.27104437  0.20639722  0.53314063     0.21900
H1115       H  0.17995041  0.02442388  0.94329213     0.27200
H1116       H  0.31568011  0.08819192  0.51827643     0.16000
C1117       C  0.69748302  0.33448835  0.88248856    -0.11300
C1118       C  0.65196769  0.29968376  0.86997177     0.15300
C1119       C  0.61006368  0.26382665  0.88475388     0.02200
C1120       C  0.61364752  0.26622654  0.91227421    -0.15600
C1121       C  0.65659214  0.30625805  0.92516561    -0.10400
C1122       C  0.70074926  0.33787341  0.91000012     0.08900
C1123       C  0.65028505  0.30318299  0.84142538     0.09900
S1124       S  0.55090794  0.21545188  0.86989578    -0.24800
H1125       H  0.58247170  0.23664102  0.92331887     0.20200
S1126       S  0.76157789  0.38256533  0.92503443    -0.30500
H1127       H  0.73004431  0.35994099  0.87050220     0.10500
C1128       C  0.65141103  0.34387501  0.83045882     0.03700
C1129       C  0.65784410  0.35065578  0.80325527    -0.12800
C1130       C  0.66491212  0.31860007  0.78691605    -0.08400
C1131       C  0.65440658  0.27276269  0.79780014     0.07200
C1132       C  0.65036942  0.26724988  0.82520006    -0.13500
S1133       S  0.64425055  0.38678939  0.85110310    -0.30400
H1134       H  0.65628686  0.38061736  0.79470907     0.11400
S1135       S  0.64024509  0.21752424  0.77888973    -0.27500
H1136       H  0.64606969  0.23422310  0.83395673     0.08600
H1137       H  0.78879259  0.40347992  0.90143657     0.27100
H1138       H  0.64945457  0.41898802  0.83074519     0.21900
H1139       H  0.61601929  0.22382150  0.75775321     0.27200
H1140       H  0.55404579  0.24296471  0.84762029     0.16000
C1141       C  0.66549574  0.31528778  0.63022865    -0.11300
C1142       C  0.67929575  0.36141913  0.61976652     0.15300
C1143       C  0.68597194  0.40042177  0.63653685     0.02200
C1144       C  0.68203914  0.39332325  0.66382638    -0.15600
C1145       C  0.67458583  0.34939775  0.67481802    -0.10400
C1146       C  0.66111990  0.30781026  0.65739802     0.08900
C1147       C  0.68140317  0.36477655  0.59099476     0.09900
S1148       S  0.69910005  0.45954801  0.62443709    -0.24800
H1149       H  0.68337110  0.42207023  0.67631816     0.20200
S1150       S  0.63711462  0.24360665  0.66692587    -0.30500
H1151       H  0.65701644  0.28426439  0.61686064     0.10500
C1152       C  0.71888919  0.36398176  0.57669646     0.03700
C1153       C  0.71404154  0.35715962  0.54931853    -0.12800
C1154       C  0.67077189  0.34764925  0.53605491    -0.08400
C1155       C  0.63750698  0.35693751  0.55037434     0.07200
C1156       C  0.64231304  0.36319091  0.57783215    -0.13500
S1157       S  0.77236357  0.37072456  0.59338547    -0.30400
H1158       H  0.74477317  0.35985369  0.53840373     0.11400
S1159       S  0.58924659  0.36378823  0.53664181    -0.27500
H1160       H  0.61483183  0.36613277  0.58920975     0.08600
H1161       H  0.61710927  0.24281143  0.69183462     0.27100
H1162       H  0.79246339  0.36034343  0.57108342     0.21900
H1163       H  0.60224971  0.36842580  0.50996326     0.27200
H1164       H  0.72350036  0.45995445  0.60090210     0.16000
loop_ 
_geom_bond_atom_site_label_1 
_geom_bond_atom_site_label_2 
_geom_bond_distance 
_geom_bond_site_symmetry_2 
_ccdc_geom_bond_type 
C1            C3   1.549   1_554  S
C1            C5   1.531   1_554  S
C1            C4   1.543   1_554  S
C1          C572   1.516       .  S
C2            C6   1.529       .  S
C2            C8   1.527       .  S
C2            C7   1.547       .  S
C2          C539   1.510       .  S
C3           C11   1.390   1_556  A
C3          C588   1.391       .  A
C4           C15   1.377   1_556  A
C4          C589   1.403       .  A
C5           C19   1.375       .  A
C5          C590   1.377       .  A
C6            C9   1.374       .  A
C6          C585   1.392       .  A
C7           C13   1.382       .  A
C7          C586   1.401       .  A
C8           C16   1.379       .  A
C8          C587   1.379       .  A
C9           N10   1.350       .  A
C9           H22   1.084       .  S
N10         C593   1.355       .  A
N10         C476   1.436       .  S
C11         N592   1.357   1_554  A
C11          H12   1.082       .  S
C13         N596   1.352       .  A
C13          H23   1.082       .  S
N14          C15   1.351   1_556  A
N14         C595   1.351       .  A
N14        C1097   1.428       .  S
C15          H21   1.079       .  S
C16         N599   1.356       .  A
C16          H18   1.081       .  S
N17          C19   1.355       .  A
N17         C598   1.355       .  A
N17        C1082   1.432       .  S
C19          H20   1.085   1_556  S
C24          C26   1.538       .  S
C24          C28   1.546       .  S
C24          C27   1.526       .  S
C24         C548   1.504       .  S
C25          C29   1.538       .  S
C25          C31   1.552       .  S
C25          C30   1.524       .  S
C25         C563   1.505       .  S
C26          C34   1.383       .  A
C26          C29   1.392       .  A
C27          C38   1.378       .  A
C27          C30   1.373       .  A
C28          C42   1.383       .  A
C28          C31   1.396       .  A
C29          C32   1.381       .  A
C30          C36   1.377       .  A
C31          C39   1.383       .  A
C32          N33   1.353       .  A
C32          H45   1.080       .  S
N33          C34   1.356       .  A
N33         C395   1.437       .  S
C34          H35   1.083       .  S
C36          N37   1.357       .  A
C36          H46   1.087       .  S
N37          C38   1.358       .  A
N37         C452   1.437       .  S
C38          H44   1.079       .  S
C39          N40   1.354       .  A
C39          H41   1.082       .  S
N40          C42   1.354       .  A
N40         C419   1.434       .  S
C42          H43   1.083       .  S
C47          N65   1.352       .  A
C47          C84   1.462       .  S
C47         C371   1.482       .  S
N48          N65   1.325       .  A
N48          N70   1.317       .  A
N48         Co85   2.082   1_455  S
C49          N74   1.340       .  A
C49          H94   1.081       .  S
C49          C87   1.462       .  S
H50          C91   1.082       .  S
C51         N657   1.367   1_554  A
C51          H80   1.082       .  S
C51          C55   1.491   1_565  S
Co52         N70   2.080   1_545  S
Co52         N60   2.114       .  S
Co52         N92   2.166       .  S
Co52         N68   2.082       .  S
Co52        Cl96   2.471   1_455  S
N53          C91   1.339       .  A
N53          N60   1.325       .  A
N53         Co54   2.075       .  S
Co54         N57   2.160       .  S
Co54         N74   2.113       .  S
Co54         N61   2.081   1_455  S
Co54        Cl96   2.470   1_455  S
C55          N93   1.372   1_655  A
C55         C120   1.567       .  S
N56          N63   1.325       .  A
N56          N86   1.328       .  A
N56         Co89   2.096       .  S
N57          N75   1.324   1_445  A
N57         N675   1.344       .  A
N58          C87   1.349       .  A
N58          N68   1.324       .  A
H59          C84   1.080   1_545  S
N60          N81   1.324       .  A
N61          N79   1.317       .  A
N61          N66   1.325       .  A
C62          N66   1.352       .  A
C62          C90   1.458       .  S
C62         C467   1.474       .  S
N63          C78   1.334       .  A
N63         Co85   2.094       .  S
C64          N92   1.366       .  A
C64          H98   1.081       .  S
C64          C67   1.490   1_455  S
C67          N88   1.370   1_545  A
C67         C108   1.561       .  S
N68          N74   1.327       .  A
N69          C95   1.343       .  A
N69          N71   1.326       .  A
N69         Co85   2.088       .  S
N70          C84   1.339       .  A
N71          N99   1.321       .  A
N71         Co89   2.104       .  S
H72          C95   1.081       .  S
H73          C90   1.081   1_565  S
N75         C633   1.366       .  A
N75         Co89   2.166       .  S
N76          N88   1.345       .  A
N76          N92   1.322   1_665  A
N76         Co85   2.157       .  S
C77          N81   1.351       .  A
C77          C91   1.459       .  S
C77         C524   1.482       .  S
C78          H82   1.082       .  S
C78          C97   1.454       .  S
N79          C90   1.339       .  A
N79         Co89   2.077   1_545  S
C83          N99   1.348       .  A
C83          C95   1.466       .  S
C83         C347   1.480       .  S
Co85        Cl96   2.472   1_565  S
N86          C97   1.355       .  A
C87         C332   1.481       .  S
Co89        Cl96   2.473   1_565  S
N93         N639   1.347   1_554  A
C97         C491   1.478       .  S
C100        N118   1.349       .  A
C100        C137   1.460       .  S
C100        C299   1.478       .  S
N101        N118   1.324       .  A
N101        N123   1.316       .  A
N101       Co138   2.072   1_455  S
C102        N127   1.339       .  A
C102        H147   1.082       .  S
C102        C140   1.457       .  S
H103        C144   1.081       .  S
C104        N128   1.365       .  A
C104        H133   1.082       .  S
C104        C108   1.488   1_565  S
Co105       N123   2.078   1_545  S
Co105       N113   2.112       .  S
Co105       N145   2.169       .  S
Co105       N121   2.082       .  S
Co105      Cl149   2.469   1_455  S
N106        C144   1.341       .  A
N106        N113   1.326       .  A
N106       Co107   2.085       .  S
Co107       N110   2.164       .  S
Co107       N127   2.108       .  S
Co107       N114   2.081   1_455  S
Co107      Cl149   2.475   1_455  S
C108        N146   1.371   1_655  A
N109        N116   1.325       .  A
N109        N139   1.328       .  A
N109       Co142   2.095       .  S
N110        N128   1.323   1_445  A
N110        N146   1.346       .  A
N111        C140   1.349       .  A
N111        N121   1.325       .  A
H112        C137   1.082   1_545  S
N113        N134   1.324       .  A
N114        N132   1.318       .  A
N114        N119   1.325       .  A
C115        N119   1.352       .  A
C115        C143   1.466       .  S
C115        C404   1.487       .  S
N116        C131   1.337       .  A
N116       Co138   2.109       .  S
C117        N145   1.367       .  A
C117        H151   1.081       .  S
C117        C120   1.491   1_455  S
C120        N141   1.372   1_545  A
N121        N127   1.326       .  A
N122        C148   1.336       .  A
N122        N124   1.325       .  A
N122       Co138   2.071       .  S
N123        C137   1.338       .  A
N124        N152   1.325       .  A
N124       Co142   2.115       .  S
H125        C148   1.081       .  S
H126        C143   1.080       .  S
N128       Co142   2.165       .  S
N129        N141   1.347       .  A
N129        N145   1.322   1_665  A
N129       Co138   2.170       .  S
C130        N134   1.349       .  A
C130        C144   1.464       .  S
C130        C443   1.481       .  S
C131        H135   1.080       .  S
C131        C150   1.462       .  S
N132        C143   1.341       .  A
N132       Co142   2.090   1_545  S
C136        N152   1.352       .  A
C136        C148   1.458       .  S
C136        C284   1.477       .  S
Co138      Cl149   2.474   1_565  S
N139        C150   1.355       .  A
C140        C251   1.471       .  S
Co142      Cl149   2.471   1_565  S
C150        C428   1.495       .  S
C153        C155   1.531       .  S
C153        C157   1.539       .  S
C153        C156   1.552       .  S
C153        C203   1.511       .  S
C154        C158   1.541       .  S
C154        C160   1.539       .  S
C154        C159   1.528       .  S
C154        C236   1.513       .  S
C155        C163   1.378       .  A
C155        C158   1.383       .  A
C156        C167   1.391       .  A
C156        C159   1.390       .  A
C157        C171   1.378       .  A
C157        C160   1.390       .  A
C158        C161   1.379       .  A
C159        C165   1.369       .  A
C160        C168   1.380       .  A
C161        N162   1.356       .  A
C161        H174   1.083       .  S
N162        C163   1.357       .  A
N162        C380   1.438       .  S
C163        H164   1.083       .  S
C165        N166   1.351       .  A
C165        H175   1.083       .  S
N166        C167   1.361       .  A
N166        C323   1.436       .  S
C167        H173   1.078       .  S
C168        N169   1.355       .  A
C168        H170   1.080       .  S
N169        C171   1.352       .  A
N169        C356   1.429       .  S
C171        H172   1.082       .  S
C176        C178   1.533       .  S
C176        C180   1.539       .  S
C176        C179   1.555       .  S
C176        C227   1.512       .  S
C177        C181   1.536       .  S
C177        C183   1.523       .  S
C177        C182   1.534       .  S
C177        C212   1.510       .  S
C178        C186   1.378       .  A
C178        C181   1.383       .  A
C179        C190   1.385       .  A
C179        C182   1.394       .  A
C180        C194   1.387       .  A
C180        C183   1.387       .  A
C181        C184   1.376       .  A
C182        C188   1.374       .  A
C183        C191   1.368       .  A
C184        N185   1.355       .  A
C184        H197   1.084       .  S
N185        C186   1.359       .  A
N185        C308   1.438       .  S
C186        H187   1.082       .  S
C188        N189   1.352       .  A
C188        H198   1.081       .  S
N189        C190   1.357       .  A
N189        C260   1.434       .  S
C190        H196   1.080       .  S
C191        N192   1.349       .  A
C191        H193   1.086       .  S
N192        C194   1.357       .  A
N192        C275   1.428       .  S
C194        H195   1.081       .  S
C199        C200   1.391       .  A
C199        C204   1.388       .  A
C199        H209   1.083       .  S
C200        C201   1.404       .  A
C200        C205   1.451       .  S
C201        C202   1.386       .  A
C201        S206   1.806       .  S
C202        C203   1.404       .  A
C202        H207   1.075       .  S
C203        C204   1.431       .  A
C204        S208   1.815       .  S
C205        C210   1.401       .  A
C205        C214   1.396       .  A
S206        H222   1.406       .  S
S208        H219   1.394       .  S
C210        C211   1.387       .  A
C210        S215   1.808       .  S
C211        C212   1.408       .  A
C211        H216   1.080       .  S
C212        C213   1.422       .  A
C213        C214   1.389       .  A
C213        S217   1.810       .  S
C214        H218   1.084       .  S
S215        H220   1.407       .  S
S217        H221   1.397       .  S
C223        C228   1.390       .  A
C223        C806   1.395       .  A
C223        H815   1.085       .  S
C224        C805   1.395       .  A
C224        C807   1.402       .  A
C224        C229   1.448       .  S
C225        C226   1.387       .  A
C225        C806   1.403       .  A
C225        S812   1.808       .  S
C226        C227   1.407       .  A
C226        H231   1.079       .  S
C227        C228   1.422       .  A
C228        S232   1.808       .  S
C229        C234   1.398       .  A
C229        C238   1.395       .  A
S230        C807   1.805       .  S
S230        H246   1.404       .  S
S232        H243   1.399       .  S
H233        C805   1.085       .  S
C234        C235   1.390       .  A
C234        S239   1.807       .  S
C235        C236   1.409       .  A
C235        H240   1.079       .  S
C236        C237   1.422       .  A
C237        C238   1.389       .  A
C237        S241   1.809       .  S
C238        H242   1.085       .  S
S239        H244   1.407       .  S
S241        H245   1.398       .  S
C247        C248   1.401       .  A
C247        C252   1.398       .  A
C247        H257   1.085       .  S
C248        C249   1.412       .  A
C248        C253   1.476       .  S
C249        C250   1.400       .  A
C249        S254   1.803       .  S
C250        C251   1.401       .  A
C250        H255   1.085       .  S
C251        C252   1.414       .  A
C252        S256   1.804       .  S
C253        C258   1.408       .  A
C253        C262   1.402       .  A
S254        H270   1.404       .  S
S256        H267   1.407       .  S
C258        C259   1.401       .  A
C258        S263   1.807       .  S
C259        C260   1.402       .  A
C259        H264   1.082       .  S
C260        C261   1.412       .  A
C261        C262   1.400       .  A
C261        S265   1.802       .  S
C262        H266   1.083       .  S
S263        H268   1.407       .  S
S265        H269   1.407       .  S
C271        C272   1.404       .  A
C271        C276   1.397       .  A
C271        H281   1.085       .  S
C272        C273   1.415       .  A
C272        C277   1.482       .  S
C273        C274   1.398       .  A
C273        S278   1.804       .  S
C274        C275   1.398       .  A
C274        H279   1.085       .  S
C275        C276   1.410       .  A
C276        S280   1.803       .  S
C277        C282   1.413       .  A
C277        C286   1.401       .  A
S278        H294   1.406       .  S
S280        H291   1.406       .  S
C282        C283   1.402       .  A
C282        S287   1.809       .  S
C283        C284   1.404       .  A
C283        H288   1.082       .  S
C284        C285   1.414       .  A
C285        C286   1.397       .  A
C285        S289   1.803       .  S
C286        H290   1.083       .  S
S287        H292   1.407       .  S
S289        H293   1.407       .  S
C295        C296   1.400       .  A
C295        C300   1.398       .  A
C295        H305   1.084       .  S
C296        C297   1.411       .  A
C296        C301   1.475       .  S
C297        C298   1.395       .  A
C297        S302   1.805       .  S
C298        C299   1.404       .  A
C298        H303   1.082       .  S
C299        C300   1.417       .  A
C300        S304   1.801       .  S
C301        C306   1.408       .  A
C301        C310   1.402       .  A
S302        H318   1.405       .  S
S304        H315   1.407       .  S
C306        C307   1.398       .  A
C306        S311   1.808       .  S
C307        C308   1.406       .  A
C307        H312   1.081       .  S
C308        C309   1.413       .  A
C309        C310   1.399       .  A
C309        S313   1.801       .  S
C310        H314   1.083       .  S
S311        H316   1.407       .  S
S313        H317   1.407       .  S
C319        C320   1.404       .  A
C319        C324   1.405       .  A
C319        H329   1.081       .  S
C320        C321   1.411       .  A
C320        C325   1.479       .  S
C321        C322   1.398       .  A
C321        S326   1.804       .  S
C322        C323   1.403       .  A
C322        H327   1.081       .  S
C323        C324   1.410       .  A
C324        S328   1.804       .  S
C325        C330   1.408       .  A
C325        C334   1.400       .  A
S326        H342   1.406       .  S
S328        H339   1.407       .  S
C330        C331   1.406       .  A
C330        S335   1.805       .  S
C331        C332   1.407       .  A
C331        H336   1.080       .  S
C332        C333   1.416       .  A
C333        C334   1.397       .  A
C333        S337   1.802       .  S
C334        H338   1.081       .  S
S335        H340   1.407       .  S
S337        H341   1.407       .  S
C343        C344   1.404       .  A
C343        C348   1.402       .  A
C343        H353   1.084       .  S
C344        C345   1.410       .  A
C344        C349   1.479       .  S
C345        C346   1.394       .  A
C345        S350   1.805       .  S
C346        C347   1.405       .  A
C346        H351   1.084       .  S
C347        C348   1.415       .  A
C348        S352   1.802       .  S
C349        C354   1.410       .  A
C349        C358   1.404       .  A
S350        H366   1.406       .  S
S352        H363   1.407       .  S
C354        C355   1.403       .  A
C354        S359   1.806       .  S
C355        C356   1.401       .  A
C355        H360   1.081       .  S
C356        C357   1.408       .  A
C357        C358   1.397       .  A
C357        S361   1.803       .  S
C358        H362   1.082       .  S
S359        H364   1.407       .  S
S361        H365   1.405       .  S
C367        C368   1.403       .  A
C367        C372   1.402       .  A
C367        H377   1.084       .  S
C368        C369   1.409       .  A
C368        C373   1.476       .  S
C369        C370   1.395       .  A
C369        S374   1.805       .  S
C370        C371   1.402       .  A
C370        H375   1.077       .  S
C371        C372   1.415       .  A
C372        S376   1.801       .  S
C373        C378   1.407       .  A
C373        C382   1.403       .  A
S374        H390   1.405       .  S
S376        H387   1.407       .  S
C378        C379   1.399       .  A
C378        S383   1.807       .  S
C379        C380   1.405       .  A
C379        H384   1.082       .  S
C380        C381   1.414       .  A
C381        C382   1.401       .  A
C381        S385   1.802       .  S
C382        H386   1.083       .  S
S383        H388   1.407       .  S
S385        H389   1.407       .  S
C391        C392   1.405       .  A
C391        C396   1.402       .  A
C391        H401   1.083       .  S
C392        C393   1.413       .  A
C392        C397   1.485       .  S
C393        C394   1.400       .  A
C393        S398   1.804       .  S
C394        C395   1.403       .  A
C394        H399   1.083       .  S
C395        C396   1.411       .  A
C396        S400   1.801       .  S
C397        C402   1.409       .  A
C397        C406   1.402       .  A
S398        H414   1.406       .  S
S400        H411   1.407       .  S
C402        C403   1.406       .  A
C402        S407   1.806       .  S
C403        C404   1.408       .  A
C403        H408   1.082       .  S
C404        C405   1.416       .  A
C405        C406   1.399       .  A
C405        S409   1.802       .  S
C406        H410   1.083       .  S
S407        H412   1.407       .  S
S409        H413   1.407       .  S
C415        C416   1.402       .  A
C415        C420   1.398       .  A
C415        H425   1.084       .  S
C416        C417   1.415       .  A
C416        C421   1.483       .  S
C417        C418   1.403       .  A
C417        S422   1.804       .  S
C418        C419   1.401       .  A
C418        H423   1.084       .  S
C419        C420   1.410       .  A
C420        S424   1.800       .  S
C421        C426   1.408       .  A
C421        C430   1.402       .  A
S422        H438   1.406       .  S
S424        H435   1.404       .  S
C426        C427   1.401       .  A
C426        S431   1.809       .  S
C427        C428   1.409       .  A
C427        H432   1.079       .  S
C428        C429   1.420       .  A
C429        C430   1.405       .  A
C429        S433   1.800       .  S
C430        H434   1.084       .  S
S431        H436   1.406       .  S
S433        H437   1.407       .  S
C439        C440   1.402       .  A
C439        C444   1.399       .  A
C439        H449   1.084       .  S
C440        C441   1.412       .  A
C440        C445   1.482       .  S
C441        C442   1.399       .  A
C441        S446   1.804       .  S
C442        C443   1.405       .  A
C442        H447   1.083       .  S
C443        C444   1.416       .  A
C444        S448   1.804       .  S
C445        C450   1.410       .  A
C445        C454   1.403       .  A
S446        H462   1.406       .  S
S448        H459   1.407       .  S
C450        C451   1.402       .  A
C450        S455   1.806       .  S
C451        C452   1.403       .  A
C451        H456   1.084       .  S
C452        C453   1.410       .  A
C453        C454   1.402       .  A
C453        S457   1.805       .  S
C454        H458   1.084       .  S
S455        H460   1.407       .  S
S457        H461   1.407       .  S
C463        C464   1.401       .  A
C463        C468   1.400       .  A
C463        H473   1.083       .  S
C464        C465   1.412       .  A
C464        C469   1.476       .  S
C465        C466   1.397       .  A
C465        S470   1.804       .  S
C466        C467   1.401       .  A
C466        H471   1.083       .  S
C467        C468   1.415       .  A
C468        S472   1.804       .  S
C469        C474   1.408       .  A
C469       C1060   1.401       .  A
S470        H486   1.405       .  S
S472        H483   1.406       .  S
C474        C475   1.403       .  A
C474        S479   1.806       .  S
C475        C476   1.404       .  A
C475        H480   1.081       .  S
C476       C1059   1.413       .  A
C477        C478   1.400       .  A
C477       C1058   1.414   1_554  A
C477        S481   1.802       .  S
C478       C1051   1.402   1_554  A
C478        H482   1.083       .  S
S479        H484   1.407       .  S
S481        H485   1.407   1_554  S
C487        C488   1.403       .  A
C487        C492   1.402       .  A
C487        H497   1.085       .  S
C488        C489   1.409       .  A
C488        C493   1.475       .  S
C489        C490   1.396       .  A
C489        S494   1.805       .  S
C490        C491   1.407       .  A
C490        H495   1.084       .  S
C491        C492   1.411       .  A
C492        S496   1.803       .  S
C493        C498   1.409       .  A
C493       C1084   1.402       .  A
S494        H510   1.405       .  S
S496        H507   1.406       .  S
C498        C499   1.400       .  A
C498        S503   1.806       .  S
C499        C500   1.400       .  A
C499        H504   1.081       .  S
C500       C1083   1.410       .  A
C500        N599   1.430       .  S
C501        C502   1.398       .  A
C501       C1082   1.412       .  A
C501        S505   1.802       .  S
C502       C1075   1.401       .  A
C502        H506   1.083       .  S
S503        H508   1.407       .  S
S505        H509   1.407       .  S
C511        C512   1.400       .  A
C511        C516   1.395       .  A
C511        H521   1.086       .  S
C512        C513   1.411       .  A
C512        C517   1.473       .  S
C513       C1096   1.397       .  A
C513       S1100   1.803       .  S
C514       C1095   1.396   1_554  A
C514       C1097   1.399   1_554  A
C514        H519   1.085       .  S
C515        C516   1.413       .  A
C515       C1096   1.399       .  A
C515        N596   1.428       .  S
C516        S520   1.806       .  S
C517        C522   1.406       .  A
C517        C526   1.397       .  A
S518       C1095   1.804   1_554  S
S518        H534   1.406       .  S
S520        H531   1.396       .  S
C522        C523   1.403       .  A
C522       S1109   1.806       .  S
C523        C524   1.408       .  A
C523       H1110   1.081       .  S
C524        C525   1.415       .  A
C525        C526   1.393       .  A
C525        S529   1.794       .  S
C526        H530   1.085       .  S
S527       C1104   1.806   1_554  S
S527        H532   1.407       .  S
H528       C1105   1.082       .  S
S529        H533   1.408       .  S
C535        C536   1.394       .  A
C535        C540   1.388       .  A
C535        H545   1.084       .  S
C536        C537   1.402       .  A
C536        C541   1.447       .  S
C537        C538   1.387       .  A
C537        S542   1.805       .  S
C538        C539   1.406       .  A
C538        H543   1.076       .  S
C539        C540   1.421       .  A
C540        S544   1.814       .  S
C541        C546   1.401       .  A
C541        C550   1.393       .  A
S542        H558   1.406       .  S
S544        H555   1.406       .  S
C546        C547   1.385       .  A
C546        S551   1.810       .  S
C547        C548   1.406       .  A
C547        H552   1.080       .  S
C548        C549   1.423       .  A
C549        C550   1.389       .  A
C549        S553   1.805       .  S
C550        H554   1.084       .  S
S551        H556   1.407       .  S
S553        H557   1.404       .  S
C559        C560   1.393       .  A
C559        C564   1.383       .  A
C559        H569   1.087       .  S
C560        C561   1.401       .  A
C560        C565   1.447       .  S
C561        C562   1.387       .  A
C561        S566   1.804       .  S
C562        C563   1.406       .  A
C562        H567   1.081       .  S
C563        C564   1.425       .  A
C564        S568   1.814       .  S
C565        C570   1.397       .  A
C565        C574   1.391       .  A
S566        H582   1.406       .  S
S568        H579   1.396       .  S
C570        C571   1.385       .  A
C570        S575   1.808       .  S
C571        C572   1.409       .  A
C571        H576   1.078       .  S
C572        C573   1.432       .  A
C573        C574   1.389       .  A
C573        S577   1.812       .  S
C574        H578   1.085       .  S
S575        H580   1.407       .  S
S577        H581   1.387       .  S
C583        C585   1.547       .  S
C583        C587   1.531       .  S
C583        C586   1.541       .  S
C583       C1154   1.519       .  S
C584        C588   1.530       .  S
C584        C590   1.525       .  S
C584        C589   1.545       .  S
C584       C1121   1.508       .  S
C585        C593   1.388       .  A
C586        C597   1.377       .  A
C587        C601   1.375       .  A
C588        C591   1.375       .  A
C589        C595   1.381       .  A
C590        C598   1.377       .  A
C591        N592   1.351       .  A
C591        H604   1.083       .  S
N592       C1058   1.439       .  S
C593        H594   1.081       .  S
C595        H605   1.082       .  S
N596        C597   1.351       .  A
C597        H603   1.079       .  S
C598        H600   1.081       .  S
N599        C601   1.354       .  A
C601        H602   1.085       .  S
C606        C608   1.538       .  S
C606        C610   1.546       .  S
C606        C609   1.524       .  S
C606       C1130   1.507       .  S
C607        C611   1.539       .  S
C607        C613   1.554       .  S
C607        C612   1.526       .  S
C607       C1145   1.510       .  S
C608        C616   1.381       .  A
C608        C611   1.389       .  A
C609        C620   1.377       .  A
C609        C612   1.375       .  A
C610        C624   1.382       .  A
C610        C613   1.399       .  A
C611        C614   1.380       .  A
C612        C618   1.377       .  A
C613        C621   1.384       .  A
C614        N615   1.354       .  A
C614        H627   1.081       .  S
N615        C616   1.357       .  A
N615        C977   1.435       .  S
C616        H617   1.083       .  S
C618        N619   1.357       .  A
C618        H628   1.088       .  S
N619        C620   1.356       .  A
N619       C1034   1.435       .  S
C620        H626   1.079       .  S
C621        N622   1.355       .  A
C621        H623   1.081       .  S
N622        C624   1.352       .  A
N622       C1001   1.434       .  S
C624        H625   1.084       .  S
C629        N647   1.350       .  A
C629        C666   1.460       .  S
C629        C953   1.476       .  S
N630        N647   1.324       .  A
N630        N652   1.317       .  A
N630       Co667   2.078   1_455  S
C631        N656   1.341       .  A
C631        H676   1.082       .  S
C631        C669   1.464       .  S
H632        C673   1.082       .  S
C633        H662   1.082       .  S
C633        C637   1.490   1_565  S
Co634       N652   2.082   1_545  S
Co634       N642   2.103       .  S
Co634       N674   2.158       .  S
Co634       N650   2.079       .  S
Co634      Cl678   2.469   1_455  S
N635        C673   1.338       .  A
N635        N642   1.325       .  A
N635       Co636   2.075       .  S
Co636       N639   2.174       .  S
Co636       N656   2.121       .  S
Co636       N643   2.079   1_455  S
Co636      Cl678   2.472   1_455  S
C637        N675   1.368   1_655  A
C637        C702   1.558       .  S
N638        N645   1.325       .  A
N638        N668   1.327       .  A
N638       Co671   2.093       .  S
N639        N657   1.324   1_445  A
N640        C669   1.348       .  A
N640        N650   1.324       .  A
H641        C666   1.081   1_545  S
N642        N663   1.322       .  A
N643        N661   1.317       .  A
N643        N648   1.325       .  A
C644        N648   1.351       .  A
C644        C672   1.461       .  S
C644       C1049   1.478       .  S
N645        C660   1.334       .  A
N645       Co667   2.093       .  S
C646        N674   1.364       .  A
C646        H680   1.082       .  S
C646        C649   1.486   1_455  S
C649        N670   1.370   1_545  A
C649        C690   1.556       .  S
N650        N656   1.327       .  A
N651        C677   1.341       .  A
N651        N653   1.326       .  A
N651       Co667   2.080       .  S
N652        C666   1.340       .  A
N653        N681   1.320       .  A
N653       Co671   2.107       .  S
H654        C677   1.082       .  S
H655        C672   1.081   1_565  S
N657       Co671   2.169       .  S
N658        N670   1.345       .  A
N658        N674   1.321   1_665  A
N658       Co667   2.156       .  S
C659        N663   1.348       .  A
C659        C673   1.459       .  S
C659       C1106   1.476       .  S
C660        H664   1.083       .  S
C660        C679   1.454       .  S
N661        C672   1.341       .  A
N661       Co671   2.083   1_545  S
C665        N681   1.349       .  A
C665        C677   1.462       .  S
C665        C929   1.476       .  S
Co667      Cl678   2.474   1_565  S
N668        C679   1.353       .  A
C669        C914   1.482       .  S
Co671      Cl678   2.469   1_565  S
C679       C1073   1.471       .  S
C682        N700   1.349       .  A
C682        C719   1.461       .  S
C682        C881   1.479       .  S
N683        N700   1.324       .  A
N683        N705   1.316       .  A
N683       Co720   2.072   1_455  S
C684        N709   1.341       .  A
C684        H729   1.083       .  S
C684        C722   1.459       .  S
H685        C726   1.081       .  S
C686        N710   1.364       .  A
C686        H715   1.082       .  S
C686        C690   1.485   1_565  S
Co687       N705   2.085   1_545  S
Co687       N695   2.113       .  S
Co687       N727   2.168       .  S
Co687       N703   2.091       .  S
Co687      Cl731   2.469   1_455  S
N688        C726   1.341       .  A
N688        N695   1.326       .  A
N688       Co689   2.083       .  S
Co689       N692   2.165       .  S
Co689       N709   2.114       .  S
Co689       N696   2.079   1_455  S
Co689      Cl731   2.472   1_455  S
C690        N728   1.370   1_655  A
N691        N698   1.324       .  A
N691        N721   1.328       .  A
N691       Co724   2.093       .  S
N692        N710   1.323   1_445  A
N692        N728   1.345       .  A
N693        C722   1.351       .  A
N693        N703   1.327       .  A
H694        C719   1.082   1_545  S
N695        N716   1.323       .  A
N696        N714   1.319       .  A
N696        N701   1.324       .  A
C697        N701   1.350       .  A
C697        C725   1.464       .  S
C697        C986   1.481       .  S
N698        C713   1.336       .  A
N698       Co720   2.102       .  S
C699        N727   1.365       .  A
C699        H733   1.081       .  S
C699        C702   1.490   1_455  S
C702        N723   1.368   1_545  A
N703        N709   1.327       .  A
N704        C730   1.336       .  A
N704        N706   1.324       .  A
N704       Co720   2.067       .  S
N705        C719   1.340       .  A
N706        N734   1.326       .  A
N706       Co724   2.118       .  S
H707        C730   1.082       .  S
H708        C725   1.082       .  S
N710       Co724   2.157       .  S
N711        N723   1.344       .  A
N711        N727   1.323   1_665  A
N711       Co720   2.155       .  S
C712        N716   1.350       .  A
C712        C726   1.463       .  S
C712       C1025   1.479       .  S
C713        H717   1.080       .  S
C713        C732   1.459       .  S
N714        C725   1.341       .  A
N714       Co724   2.089   1_545  S
C718        N734   1.354       .  A
C718        C730   1.456       .  S
C718        C866   1.479       .  S
Co720      Cl731   2.472   1_565  S
N721        C732   1.354       .  A
C722        C833   1.480       .  S
Co724      Cl731   2.472   1_565  S
C732       C1010   1.489       .  S
C735        C737   1.531       .  S
C735        C739   1.536       .  S
C735        C738   1.555       .  S
C735        C785   1.511       .  S
C736        C740   1.541       .  S
C736        C742   1.538       .  S
C736        C741   1.528       .  S
C736        C818   1.513       .  S
C737        C745   1.378       .  A
C737        C740   1.384       .  A
C738        C749   1.393       .  A
C738        C741   1.392       .  A
C739        C753   1.377       .  A
C739        C742   1.388       .  A
C740        C743   1.379       .  A
C741        C747   1.369       .  A
C742        C750   1.381       .  A
C743        N744   1.356       .  A
C743        H756   1.084       .  S
N744        C745   1.356       .  A
N744        C962   1.437       .  S
C745        H746   1.083       .  S
C747        N748   1.351       .  A
C747        H757   1.082       .  S
N748        C749   1.362       .  A
N748        C905   1.438       .  S
C749        H755   1.078       .  S
C750        N751   1.355       .  A
C750        H752   1.078       .  S
N751        C753   1.350       .  A
N751        C938   1.427       .  S
C753        H754   1.083       .  S
C758        C760   1.531       .  S
C758        C762   1.536       .  S
C758        C761   1.554       .  S
C758        C809   1.509       .  S
C759        C763   1.542       .  S
C759        C765   1.526       .  S
C759        C764   1.542       .  S
C759        C794   1.510       .  S
C760        C768   1.378       .  A
C760        C763   1.380       .  A
C761        C772   1.386       .  A
C761        C764   1.395       .  A
C762        C776   1.386       .  A
C762        C765   1.386       .  A
C763        C766   1.382       .  A
C764        C770   1.380       .  A
C765        C773   1.371       .  A
C766        N767   1.358       .  A
C766        H779   1.085       .  S
N767        C768   1.359       .  A
N767        C890   1.442       .  S
C768        H769   1.081       .  S
C770        N771   1.355       .  A
C770        H780   1.080       .  S
N771        C772   1.357       .  A
N771        C842   1.438       .  S
C772        H778   1.081       .  S
C773        N774   1.350       .  A
C773        H775   1.085       .  S
N774        C776   1.356       .  A
N774        C857   1.429       .  S
C776        H777   1.080       .  S
C781        C782   1.390       .  A
C781        C786   1.388       .  A
C781        H791   1.085       .  S
C782        C783   1.405       .  A
C782        C787   1.453       .  S
C783        C784   1.386       .  A
C783        S788   1.807       .  S
C784        C785   1.402       .  A
C784        H789   1.076       .  S
C785        C786   1.433       .  A
C786        S790   1.818       .  S
C787        C792   1.402       .  A
C787        C796   1.397       .  A
S788        H804   1.406       .  S
S790        H801   1.392       .  S
C792        C793   1.387       .  A
C792        S797   1.809       .  S
C793        C794   1.407       .  A
C793        H798   1.081       .  S
C794        C795   1.420       .  A
C795        C796   1.390       .  A
C795        S799   1.809       .  S
C796        H800   1.085       .  S
S797        H802   1.407       .  S
S799        H803   1.397       .  S
C805        C810   1.388       .  A
C806        C811   1.449   1_554  S
C807        C808   1.387       .  A
C808        C809   1.406       .  A
C808        H813   1.080       .  S
C809        C810   1.422       .  A
C810        S814   1.809       .  S
C811        C816   1.398       .  A
C811        C820   1.395       .  A
S812        H828   1.403   1_554  S
S814        H825   1.400       .  S
C816        C817   1.390       .  A
C816        S821   1.807       .  S
C817        C818   1.408       .  A
C817        H822   1.079       .  S
C818        C819   1.423       .  A
C819        C820   1.390       .  A
C819        S823   1.810       .  S
C820        H824   1.084       .  S
S821        H826   1.407       .  S
S823        H827   1.398       .  S
C829        C830   1.402       .  A
C829        C834   1.401       .  A
C829        H839   1.086       .  S
C830        C831   1.414       .  A
C830        C835   1.485       .  S
C831        C832   1.404       .  A
C831        S836   1.804       .  S
C832        C833   1.403       .  A
C832        H837   1.086       .  S
C833        C834   1.414       .  A
C834        S838   1.803       .  S
C835        C840   1.410       .  A
C835        C844   1.404       .  A
S836        H852   1.405       .  S
S838        H849   1.407       .  S
C840        C841   1.405       .  A
C840        S845   1.806       .  S
C841        C842   1.402       .  A
C841        H846   1.082       .  S
C842        C843   1.412       .  A
C843        C844   1.403       .  A
C843        S847   1.802       .  S
C844        H848   1.083       .  S
S845        H850   1.407       .  S
S847        H851   1.406       .  S
C853        C854   1.404       .  A
C853        C858   1.397       .  A
C853        H863   1.084       .  S
C854        C855   1.414       .  A
C854        C859   1.481       .  S
C855        C856   1.399       .  A
C855        S860   1.803       .  S
C856        C857   1.400       .  A
C856        H861   1.084       .  S
C857        C858   1.409       .  A
C858        S862   1.803       .  S
C859        C864   1.412       .  A
C859        C868   1.402       .  A
S860        H876   1.406       .  S
S862        H873   1.405       .  S
C864        C865   1.400       .  A
C864        S869   1.808       .  S
C865        C866   1.403       .  A
C865        H870   1.082       .  S
C866        C867   1.416       .  A
C867        C868   1.400       .  A
C867        S871   1.804       .  S
C868        H872   1.083       .  S
S869        H874   1.407       .  S
S871        H875   1.407       .  S
C877        C878   1.401       .  A
C877        C882   1.400       .  A
C877        H887   1.084       .  S
C878        C879   1.412       .  A
C878        C883   1.478       .  S
C879        C880   1.398       .  A
C879        S884   1.805       .  S
C880        C881   1.403       .  A
C880        H885   1.083       .  S
C881        C882   1.416       .  A
C882        S886   1.802       .  S
C883        C888   1.408       .  A
C883        C892   1.402       .  A
S884        H900   1.405       .  S
S886        H897   1.407       .  S
C888        C889   1.401       .  A
C888        S893   1.807       .  S
C889        C890   1.406       .  A
C889        H894   1.080       .  S
C890        C891   1.416       .  A
C891        C892   1.401       .  A
C891        S895   1.802       .  S
C892        H896   1.082       .  S
S893        H898   1.407       .  S
S895        H899   1.407       .  S
C901        C902   1.404       .  A
C901        C906   1.407       .  A
C901        H911   1.081       .  S
C902        C903   1.410       .  A
C902        C907   1.481       .  S
C903        C904   1.397       .  A
C903        S908   1.804       .  S
C904        C905   1.403       .  A
C904        H909   1.082       .  S
C905        C906   1.411       .  A
C906        S910   1.805       .  S
C907        C912   1.408       .  A
C907        C916   1.401       .  A
S908        H924   1.406       .  S
S910        H921   1.407       .  S
C912        C913   1.407       .  A
C912        S917   1.805       .  S
C913        C914   1.407       .  A
C913        H918   1.081       .  S
C914        C915   1.415       .  A
C915        C916   1.397       .  A
C915        S919   1.802       .  S
C916        H920   1.082       .  S
S917        H922   1.407       .  S
S919        H923   1.407       .  S
C925        C926   1.404       .  A
C925        C930   1.401       .  A
C925        H935   1.084       .  S
C926        C927   1.410       .  A
C926        C931   1.477       .  S
C927        C928   1.392       .  A
C927        S932   1.805       .  S
C928        C929   1.404       .  A
C928        H933   1.084       .  S
C929        C930   1.415       .  A
C930        S934   1.803       .  S
C931        C936   1.411       .  A
C931        C940   1.403       .  A
S932        H948   1.406       .  S
S934        H945   1.406       .  S
C936        C937   1.402       .  A
C936        S941   1.807       .  S
C937        C938   1.401       .  A
C937        H942   1.082       .  S
C938        C939   1.408       .  A
C939        C940   1.396       .  A
C939        S943   1.803       .  S
C940        H944   1.083       .  S
S941        H946   1.407       .  S
S943        H947   1.404       .  S
C949        C950   1.401       .  A
C949        C954   1.400       .  A
C949        H959   1.082       .  S
C950        C951   1.411       .  A
C950        C955   1.475       .  S
C951        C952   1.398       .  A
C951        S956   1.805       .  S
C952        C953   1.403       .  A
C952        H957   1.076       .  S
C953        C954   1.414       .  A
C954        S958   1.802       .  S
C955        C960   1.407       .  A
C955        C964   1.402       .  A
S956        H972   1.404       .  S
S958        H969   1.407       .  S
C960        C961   1.399       .  A
C960        S965   1.807       .  S
C961        C962   1.404       .  A
C961        H966   1.082       .  S
C962        C963   1.413       .  A
C963        C964   1.401       .  A
C963        S967   1.801       .  S
C964        H968   1.083       .  S
S965        H970   1.407       .  S
S967        H971   1.406       .  S
C973        C974   1.404       .  A
C973        C978   1.401       .  A
C973        H983   1.084       .  S
C974        C975   1.413       .  A
C974        C979   1.482       .  S
C975        C976   1.399       .  A
C975        S980   1.805       .  S
C976        C977   1.402       .  A
C976        H981   1.084       .  S
C977        C978   1.410       .  A
C978        S982   1.801       .  S
C979        C984   1.409       .  A
C979        C988   1.402       .  A
S980        H996   1.406       .  S
S982        H993   1.407       .  S
C984        C985   1.404       .  A
C984        S989   1.806       .  S
C985        C986   1.406       .  A
C985        H990   1.083       .  S
C986        C987   1.414       .  A
C987        C988   1.399       .  A
C987        S991   1.802       .  S
C988        H992   1.084       .  S
S989        H994   1.407       .  S
S991        H995   1.407       .  S
C997        C998   1.402       .  A
C997       C1002   1.399       .  A
C997       H1007   1.084       .  S
C998        C999   1.414       .  A
C998       C1003   1.481       .  S
C999       C1000   1.401       .  A
C999       S1004   1.803       .  S
C1000      C1001   1.401       .  A
C1000      H1005   1.084       .  S
C1001      C1002   1.411       .  A
C1002      S1006   1.800       .  S
C1003      C1008   1.408       .  A
C1003      C1012   1.403       .  A
S1004      H1020   1.406       .  S
S1006      H1017   1.404       .  S
C1008      C1009   1.399       .  A
C1008      S1013   1.809       .  S
C1009      C1010   1.407       .  A
C1009      H1014   1.081       .  S
C1010      C1011   1.418       .  A
C1011      C1012   1.405       .  A
C1011      S1015   1.801       .  S
C1012      H1016   1.084       .  S
S1013      H1018   1.407       .  S
S1015      H1019   1.407       .  S
C1021      C1022   1.402       .  A
C1021      C1026   1.398       .  A
C1021      H1031   1.085       .  S
C1022      C1023   1.413       .  A
C1022      C1027   1.483       .  S
C1023      C1024   1.399       .  A
C1023      S1028   1.805       .  S
C1024      C1025   1.405       .  A
C1024      H1029   1.084       .  S
C1025      C1026   1.414       .  A
C1026      S1030   1.804       .  S
C1027      C1032   1.411       .  A
C1027      C1036   1.404       .  A
S1028      H1044   1.406       .  S
S1030      H1041   1.407       .  S
C1032      C1033   1.401       .  A
C1032      S1037   1.807       .  S
C1033      C1034   1.402       .  A
C1033      H1038   1.085       .  S
C1034      C1035   1.409       .  A
C1035      C1036   1.401       .  A
C1035      S1039   1.805       .  S
C1036      H1040   1.085       .  S
S1037      H1042   1.407       .  S
S1039      H1043   1.407       .  S
C1045      C1046   1.402   1_554  A
C1045      C1050   1.402   1_554  A
C1045      H1055   1.083       .  S
C1046      C1047   1.412       .  A
C1046      C1051   1.481       .  S
C1047      C1048   1.398       .  A
C1047      S1052   1.804       .  S
C1048      C1049   1.402       .  A
C1048      H1053   1.083       .  S
C1049      C1050   1.416       .  A
C1050      S1054   1.803   1_556  S
C1051      C1056   1.409       .  A
S1052      H1068   1.405       .  S
S1054      H1065   1.407       .  S
C1056      C1057   1.404       .  A
C1056      S1061   1.806       .  S
C1057      C1058   1.405       .  A
C1057      H1062   1.081       .  S
C1059      C1060   1.397       .  A
C1059      S1063   1.802       .  S
C1060      H1064   1.083       .  S
S1061      H1066   1.407       .  S
S1063      H1067   1.407       .  S
C1069      C1070   1.403       .  A
C1069      C1074   1.399       .  A
C1069      H1079   1.083       .  S
C1070      C1071   1.409       .  A
C1070      C1075   1.472       .  S
C1071      C1072   1.397       .  A
C1071      S1076   1.806       .  S
C1072      C1073   1.406       .  A
C1072      H1077   1.083       .  S
C1073      C1074   1.409       .  A
C1074      S1078   1.803   1_556  S
C1075      C1080   1.409       .  A
S1076      H1092   1.404       .  S
S1078      H1089   1.405   1_554  S
C1080      C1081   1.399       .  A
C1080      S1085   1.806       .  S
C1081      C1082   1.401       .  A
C1081      H1086   1.082       .  S
C1083      C1084   1.399       .  A
C1083      S1087   1.803       .  S
C1084      H1088   1.082       .  S
S1085      H1090   1.407       .  S
S1087      H1091   1.406       .  S
C1093      C1094   1.400       .  A
C1093      C1098   1.395       .  A
C1093      H1103   1.086       .  S
C1094      C1095   1.412       .  A
C1094      C1099   1.472       .  S
C1096      H1101   1.085       .  S
C1097      C1098   1.413       .  A
C1098      S1102   1.805       .  S
C1099      C1104   1.407       .  A
C1099      C1108   1.398       .  A
S1100      H1116   1.406       .  S
S1102      H1113   1.398       .  S
C1104      C1105   1.402       .  A
C1105      C1106   1.407       .  A
C1106      C1107   1.414       .  A
C1107      C1108   1.392       .  A
C1107      S1111   1.799       .  S
C1108      H1112   1.085       .  S
S1109      H1114   1.407       .  S
S1111      H1115   1.407       .  S
C1117      C1118   1.394       .  A
C1117      C1122   1.387       .  A
C1117      H1127   1.083       .  S
C1118      C1119   1.403       .  A
C1118      C1123   1.447       .  S
C1119      C1120   1.388       .  A
C1119      S1124   1.805       .  S
C1120      C1121   1.406       .  A
C1120      H1125   1.076       .  S
C1121      C1122   1.420       .  A
C1122      S1126   1.814       .  S
C1123      C1128   1.400       .  A
C1123      C1132   1.392       .  A
S1124      H1140   1.405       .  S
S1126      H1137   1.406       .  S
C1128      C1129   1.386       .  A
C1128      S1133   1.810       .  S
C1129      C1130   1.408       .  A
C1129      H1134   1.080       .  S
C1130      C1131   1.425       .  A
C1131      C1132   1.389       .  A
C1131      S1135   1.806       .  S
C1132      H1136   1.085       .  S
S1133      H1138   1.407       .  S
S1135      H1139   1.401       .  S
C1141      C1142   1.393       .  A
C1141      C1146   1.385       .  A
C1141      H1151   1.087       .  S
C1142      C1143   1.402       .  A
C1142      C1147   1.452       .  S
C1143      C1144   1.390       .  A
C1143      S1148   1.805       .  S
C1144      C1145   1.407       .  A
C1144      H1149   1.080       .  S
C1145      C1146   1.427       .  A
C1146      S1150   1.816       .  S
C1147      C1152   1.398       .  A
C1147      C1156   1.392       .  A
S1148      H1164   1.406       .  S
S1150      H1161   1.394       .  S
C1152      C1153   1.388       .  A
C1152      S1157   1.808       .  S
C1153      C1154   1.409       .  A
C1153      H1158   1.078       .  S
C1154      C1155   1.431       .  A
C1155      C1156   1.390       .  A
C1155      S1159   1.812       .  S
C1156      H1160   1.086       .  S
S1157      H1162   1.407       .  S
S1159      H1163   1.387       .  S
