geometry optimzed in LAMMPS
_audit_creation_date              2020-11-30 
_audit_creation_method            'lammps2cif' 
_symmetry_space_group_name_H-M    'P1' 
_symmetry_Int_Tables_number       1 
_symmetry_cell_setting            triclinic 
loop_ 
_symmetry_equiv_pos_as_xyz 
  x,y,z 
_cell_length_a                    24.17615279 
_cell_length_b                    24.281679895501426 
_cell_length_c                    34.55273019987617 
_cell_angle_alpha                 89.8411269642837 
_cell_angle_beta                  90.18034233176763 
_cell_angle_gamma                 93.63806934499745 
loop_ 
_atom_site_label 
_atom_site_type_symbol 
_atom_site_fract_x 
_atom_site_fract_y 
_atom_site_fract_z 
_atom_site_charge 
N1          N  0.94311284  0.05314477  0.00526886    -0.37000
N2          N  0.94034967  0.93246054  0.99808753    -0.57600
N3          N  0.06050021  0.93661829  0.99014322    -0.37000
N4          N  0.06385271  0.05666751  0.00156829    -0.57600
C5          C  0.89132639  0.03830890  0.01826381     0.26600
C6          C  0.95685973  0.10511203  0.01808554     0.26600
C7          C  0.04897844  0.88164542  0.99577071     0.26600
C8          C  0.11512484  0.94803782  0.99802950     0.26600
C9          C  0.88534055  0.94028487  0.99633136     0.35200
C10         C  0.94661071  0.87986850  0.98645424     0.35200
C11         C  0.05539209  0.11122825  0.99770633     0.35200
C12         C  0.11677908  0.05017014  0.99022554     0.35200
C13         C  0.87241703  0.08114535  0.04007927    -0.22300
C14         C  0.91355881  0.12320154  0.03986509    -0.22300
C15         C  0.09722687  0.85792664  0.00708116    -0.22300
C16         C  0.13823844  0.89978742  0.00954746    -0.22300
C17         C  0.85671623  0.89250935  0.98334913    -0.23300
C18         C  0.89531839  0.85438056  0.97721282    -0.23300
C19         C  0.10288017  0.13914393  0.98356412    -0.23300
C20         C  0.14155591  0.10067819  0.97882531    -0.23300
C21         C  0.86005730  0.98808263  0.00946899    -0.18700
C22         C  0.00685809  0.13684502  0.00936585    -0.18700
C23         C  0.14463634  0.00038165  0.99299810    -0.18700
C24         C  0.99682685  0.85260037  0.98847100    -0.18700
H25         H  0.83313520  0.08208201  0.05489336     0.14200
H26         H  0.91185078  0.16239522  0.05448718     0.14200
H27         H  0.10332279  0.81509832  0.01304740     0.14200
H28         H  0.18032201  0.89462774  0.01886241     0.14200
H29         H  0.81243396  0.88528705  0.97938638     0.12500
H30         H  0.88618867  0.81213694  0.96817520     0.12500
H31         H  0.10921318  0.18279589  0.97738263     0.12500
H32         H  0.18333372  0.10913712  0.96826534     0.12500
H33         H  0.96557413  0.03125741  0.98551295     0.25800
H34         H  0.03402051  0.96376338  0.97757056     0.25800
N35         N  0.94873539  0.07796151  0.50454137    -0.37000
N36         N  0.93977816  0.95662239  0.50815797    -0.57600
N37         N  0.06094975  0.95630804  0.51071265    -0.37000
N38         N  0.06897380  0.07677854  0.50263563    -0.57600
C39         C  0.89418493  0.06709720  0.49671679     0.26600
C40         C  0.96264360  0.13006733  0.49201349     0.26600
C41         C  0.04763284  0.90158117  0.50538235     0.26600
C42         C  0.11567722  0.96599982  0.50249945     0.26600
C43         C  0.88605610  0.96733281  0.51491927     0.35200
C44         C  0.94550793  0.90287519  0.51775998     0.35200
C45         C  0.06364429  0.13181118  0.50603496     0.35200
C46         C  0.12258860  0.06819998  0.51086426     0.35200
C47         C  0.87324762  0.11263407  0.47889216    -0.22300
C48         C  0.91647644  0.15197060  0.47544762    -0.22300
C49         C  0.09529052  0.87651460  0.49433822    -0.22300
C50         C  0.13705665  0.91710662  0.49110003    -0.22300
C51         C  0.85754531  0.92004119  0.52868704    -0.23300
C52         C  0.89475919  0.87934334  0.53011622    -0.23300
C53         C  0.11389371  0.15810650  0.51669240    -0.23300
C54         C  0.15108491  0.11794605  0.51984647    -0.23300
C55         C  0.86195154  0.01848760  0.50705971    -0.18700
C56         C  0.01510375  0.15916344  0.49716803    -0.18700
C57         C  0.14742390  0.01707344  0.50720192    -0.18700
C58         C  0.99477862  0.87379909  0.51314453    -0.18700
H59         H  0.83114620  0.11700727  0.46915313     0.14200
H60         H  0.91382950  0.19222813  0.46233862     0.14200
H61         H  0.10153989  0.83357157  0.48960211     0.14200
H62         H  0.17872527  0.91043525  0.48176710     0.14200
H63         H  0.81428965  0.91505742  0.53668588     0.12500
H64         H  0.88513033  0.83712093  0.53909761     0.12500
H65         H  0.12301492  0.20176110  0.52152507     0.12500
H66         H  0.19438865  0.12485652  0.52753940     0.12500
H67         H  0.97320073  0.05353243  0.52140195     0.25800
H68         H  0.03574228  0.98423440  0.52341184     0.25800
Zr69       Zr  0.90951483  0.41701236  0.98774079     2.17500
O70         O  0.84479825  0.34881539  0.95730479    -0.51700
O71         O  0.84073455  0.40835112  0.03943166    -0.74900
O72         O  0.93688764  0.32111328  0.99375001    -0.81700
O73         O  0.85306349  0.53769105  0.93161098    -0.83500
O74         O  0.02294738  0.31850699  0.02020723    -0.79100
O75         O  0.84663534  0.44405056  0.93629135    -0.90700
O76         O  0.89798038  0.42000957  0.08960438    -0.76700
O77         O  0.96269351  0.42026745  0.04603946    -0.86200
O78         O  0.89289106  0.50444758  0.01673217    -0.85900
O79         O  0.00465275  0.41024946  0.96864393    -0.72600
O80         O  0.94125988  0.48815701  0.94321006    -0.84800
Zr81       Zr  0.07438453  0.57142436  0.01298356     2.26400
Zr82       Zr  0.05752841  0.41536750  0.02780116     2.06300
Zr83       Zr  0.92754587  0.57519653  0.97299019     2.10000
Zr84       Zr  0.94642135  0.50670158  0.07478094     1.78800
O85         O  0.92081354  0.63140082  0.91484028    -0.93600
O86         O  0.97712418  0.48327026  0.13962493    -0.41400
O87         O  0.97972453  0.57936263  0.03206680    -0.78000
O88         O  0.04155703  0.50160937  0.05868919    -0.96700
O89         O  0.08957362  0.48546937  0.98283510    -0.90000
O90         O  0.02218107  0.56987514  0.95439695    -0.92800
C91         C  0.84972113  0.40920749  0.07597776     1.00900
C92         C  0.83204684  0.48979897  0.92165018     1.13800
C93         C  0.97796354  0.29473887  0.00635749     1.04600
O94         O  0.06512366  0.36920095  0.09006696    -0.95000
O95         O  0.14175573  0.45249409  0.06074066    -0.90700
O96         O  0.14663987  0.54615298  0.05730994    -0.83900
C97         C  0.16429442  0.50046462  0.06944429     1.11300
O98         O  0.00991880  0.41284866  0.87660306    -0.97000
Zr99       Zr  0.03519273  0.48279326  0.92512027     1.88900
O100        O  0.14467086  0.58185112  0.96214491    -0.73600
O101        O  0.13209628  0.36738917  0.99829319    -0.52900
O102        O  0.11189567  0.42878942  0.90547386    -0.97600
O103        O  0.99833311  0.52479725  0.86702198    -0.54800
O104        O  0.10767314  0.54849689  0.90588790    -0.74100
C105        C  0.14657123  0.57285273  0.92557371     0.98200
O106        O  0.13798264  0.63810795  0.04604544    -0.63000
O107        O  0.84832622  0.61645394  0.00190723    -0.57800
O108        O  0.04528079  0.66633270  0.01319996    -0.94400
O109        O  0.96151359  0.67107018  0.98386300    -0.92900
O110        O  0.85594696  0.53966557  0.09040294    -0.93200
O111        O  0.96012873  0.58052950  0.12207752    -0.92000
C112        C  0.00490825  0.69336836  0.00059715     1.17100
H113        H  0.85385210  0.50795244  0.02118623     0.33000
H114        H  0.06038094  0.50498790  0.08326884     0.43900
H115        H  0.03330558  0.60073311  0.93785877     0.37400
H116        H  0.00965233  0.37590300  0.95548448     0.33900
H117        H  0.94250892  0.47739100  0.15476157     0.25600
H118        H  0.15777630  0.39705624  0.98775890     0.31600
H119        H  0.14428109  0.44398568  0.92048890     0.37500
H120        H  0.85001821  0.52956650  0.11793051     0.32000
H121        H  0.86316090  0.63398283  0.02594298     0.30800
H122        H  0.88927686  0.65455828  0.91963636     0.32500
H123        H  0.01028645  0.56446500  0.86883939     0.31500
H124        H  0.94653659  0.61347469  0.10907107     0.35500
H125        H  0.14799275  0.66758225  0.02698752     0.28200
H126        H  0.83433110  0.32126899  0.97761327     0.32400
H127        H  0.02816321  0.42602522  0.85237338     0.35300
H128        H  0.84085530  0.64778932  0.98467042     0.27900
H129        H  0.11598860  0.65576311  0.06613972     0.40800
H130        H  0.02637365  0.36192618  0.09879659     0.30800
H131        H  0.99093500  0.44594407  0.13702472     0.38400
H132        H  0.95770840  0.52353138  0.87087612     0.30300
H133        H  0.15242002  0.35228354  0.02044442     0.30400
H134        H  0.86681931  0.32896365  0.93834795     0.30600
Zr135      Zr  0.08279814  0.59452332  0.48350898     2.17500
O136        O  0.14221506  0.66262427  0.44853305    -0.51700
O137        O  0.15820801  0.60595948  0.53033535    -0.74900
O138        O  0.05081135  0.68915052  0.48762268    -0.81700
O139        O  0.13946664  0.47321830  0.43066791    -0.83500
O140        O  0.96824814  0.69047926  0.51909279    -0.79100
O141        O  0.14319739  0.56699565  0.43099805    -0.90700
O142        O  0.10438523  0.59567573  0.58177888    -0.76700
O143        O  0.03480368  0.59204473  0.54407270    -0.86200
O144        O  0.10385938  0.50884786  0.51417945    -0.85900
O145        O  0.98567878  0.59863075  0.46843653    -0.72600
O146        O  0.04911298  0.52078192  0.44177411    -0.84800
Zr147      Zr  0.92370940  0.43794990  0.51732440     2.26400
Zr148      Zr  0.93800725  0.59365017  0.52960125     2.06300
Zr149      Zr  0.06724080  0.43577425  0.47339132     2.10000
Zr150      Zr  0.05520270  0.50720446  0.57402371     1.78800
O151        O  0.07638721  0.37823025  0.41641293    -0.93600
O152        O  0.03304947  0.53607052  0.63928592    -0.41400
O153        O  0.01961899  0.43263411  0.53387462    -0.78000
O154        O  0.95867548  0.50898229  0.56114148    -0.96700
O155        O  0.90372285  0.52232357  0.48658774    -0.90000
O156        O  0.97137780  0.43920619  0.45721807    -0.92800
C157        C  0.15219988  0.60362498  0.56701276     1.00900
C158        C  0.15879729  0.52058300  0.41838404     1.13800
C159        C  0.00996607  0.71454031  0.50154407     1.04600
O160        O  0.93178564  0.64584109  0.58932970    -0.95000
O161        O  0.85933486  0.55689436  0.56826919    -0.90700
O162        O  0.85154170  0.46383646  0.56063720    -0.83900
C163        C  0.83628382  0.50865558  0.57555113     1.11300
O164        O  0.98260471  0.59106356  0.37685759    -0.97000
Zr165      Zr  0.95354543  0.52472887  0.42709732     1.88900
O166        O  0.85021713  0.41950311  0.46971243    -0.73600
O167        O  0.85783520  0.63229891  0.49956478    -0.52900
O168        O  0.87731757  0.58031652  0.40828410    -0.97600
O169        O  0.97946582  0.47816814  0.36803874    -0.54800
O170        O  0.87601336  0.46207727  0.41336746    -0.74100
C171        C  0.84311083  0.43103764  0.43386359     0.98200
O172        O  0.87118346  0.37322991  0.55968514    -0.63000
O173        O  0.14640184  0.39735736  0.50493924    -0.57800
O174        O  0.95022231  0.34288682  0.51313874    -0.94400
O175        O  0.03525289  0.33971999  0.48588424    -0.92900
O176        O  0.14420741  0.46998865  0.58867579    -0.93200
O177        O  0.04356289  0.43626865  0.62376360    -0.92000
C178        C  0.99119170  0.31656541  0.50115549     1.17100
H179        H  0.14324174  0.50601272  0.51758746     0.33000
H180        H  0.94155480  0.50523312  0.58625643     0.43900
H181        H  0.95929262  0.40790790  0.44144340     0.37400
H182        H  0.97820726  0.63204789  0.45473501     0.33900
H183        H  0.06891530  0.55047119  0.65037474     0.25600
H184        H  0.84736031  0.66134848  0.51769397     0.31600
H185        H  0.84715277  0.56998112  0.42674042     0.37500
H186        H  0.15504889  0.48602589  0.61411459     0.32000
H187        H  0.13267324  0.38642965  0.53099420     0.30800
H188        H  0.10952200  0.35735574  0.42159120     0.32500
H189        H  0.94595468  0.47743152  0.35144834     0.31500
H190        H  0.01138247  0.41225773  0.61490874     0.35500
H191        H  0.85183905  0.34580005  0.54237114     0.28200
H192        H  0.15381734  0.69135691  0.46769756     0.32400
H193        H  0.95524986  0.58540261  0.35562467     0.35300
H194        H  0.15085652  0.36195005  0.49151428     0.27900
H195        H  0.89853677  0.35261119  0.57428136     0.40800
H196        H  0.97075330  0.65453544  0.59724924     0.30800
H197        H  0.01171924  0.56916486  0.63554794     0.38400
H198        H  0.98279996  0.43918082  0.37563061     0.30300
H199        H  0.87287779  0.65276811  0.47669955     0.30400
H200        H  0.11757548  0.68084050  0.43020646     0.30600
Zr201      Zr  0.42424650  0.91380802  0.00861105     2.17500
O202        O  0.35519394  0.85897512  0.04609064    -0.51700
O203        O  0.41686558  0.84202664  0.95945874    -0.74900
O204        O  0.32854931  0.93520710  0.99302373    -0.81700
O205        O  0.54217838  0.85688050  0.06602085    -0.83500
O206        O  0.32671633  0.02420043  0.97245169    -0.79100
O207        O  0.44859682  0.84793441  0.05834708    -0.90700
O208        O  0.43877006  0.88897919  0.90485312    -0.76700
O209        O  0.42924725  0.96582219  0.95004808    -0.86200
O210        O  0.51274102  0.89693734  0.98149694    -0.85900
O211        O  0.41517049  0.00823716  0.02716233    -0.72600
O212        O  0.49360099  0.94694898  0.05429212    -0.84800
Zr213      Zr  0.57953889  0.07800332  0.98567291     2.26400
Zr214      Zr  0.42338518  0.06043452  0.96818557     2.06300
Zr215      Zr  0.58193532  0.93220922  0.02634186     2.10000
Zr216      Zr  0.51723960  0.94932529  0.92331150     1.78800
O217        O  0.63363933  0.92419051  0.08646201    -0.93600
O218        O  0.49063482  0.98264726  0.85970026    -0.41400
O219        O  0.58851026  0.98360271  0.96716595    -0.78000
O220        O  0.51112407  0.04360781  0.93954212    -0.96700
O221        O  0.49200328  0.09446492  0.01365753    -0.90000
O222        O  0.57457766  0.02624796  0.04432433    -0.92800
C223        C  0.42095676  0.84526001  0.92254251     1.00900
C224        C  0.49400017  0.83426295  0.07415392     1.13800
C225        C  0.30277025  0.97709091  0.98150290     1.04600
O226        O  0.37604747  0.07524107  0.90715966    -0.95000
O227        O  0.46171634  0.14114159  0.93264955    -0.90700
O228        O  0.55504354  0.15097047  0.94169651    -0.83900
C229        C  0.50988626  0.16499778  0.92586667     1.11300
O230        O  0.41450946  0.01202859  0.11816155    -0.97000
Zr231      Zr  0.48613487  0.04087675  0.07144831     1.88900
O232        O  0.59273121  0.14927097  0.03536064    -0.73600
O233        O  0.37620697  0.13300736  0.00057021    -0.52900
O234        O  0.42862447  0.11727164  0.08547745    -0.97600
O235        O  0.52601977  0.01384371  0.13306126    -0.54800
O236        O  0.54987867  0.11580519  0.08977579    -0.74100
C237        C  0.58038324  0.15191272  0.07144537     0.98200
O238        O  0.64538064  0.12661475  0.94206612    -0.63000
O239        O  0.62573884  0.85408714  0.99825947    -0.57800
O240        O  0.67574279  0.05648336  0.99653940    -0.94400
O241        O  0.67853387  0.96814904  0.01800060    -0.92900
O242        O  0.56449304  0.86560884  0.91035341    -0.93200
O243        O  0.58981178  0.96505849  0.87511691    -0.92000
C244        C  0.70214002  0.01464665  0.00702543     1.17100
H245        H  0.51662874  0.85810177  0.97716134     0.33000
H246        H  0.51590135  0.06210587  0.91491940     0.43900
H247        H  0.60451410  0.03766176  0.06169451     0.37400
H248        H  0.37957089  0.01239254  0.03906676     0.33900
H249        H  0.48204691  0.94891877  0.84420012     0.25600
H250        H  0.40386478  0.16484259  0.00154676     0.31600
H251        H  0.44898536  0.15050460  0.07472392     0.37500
H252        H  0.53662194  0.84043095  0.89726369     0.32000
H253        H  0.64920991  0.87027046  0.97716982     0.30800
H254        H  0.65702507  0.89270489  0.08233631     0.32500
H255        H  0.56658472  0.01634986  0.12880624     0.31500
H256        H  0.61240116  0.99766860  0.88470988     0.35500
H257        H  0.67315385  0.14674125  0.95878039     0.28200
H258        H  0.32968813  0.84067913  0.02692124     0.32400
H259        H  0.41881198  0.03877650  0.13970695     0.35300
H260        H  0.65242205  0.84308688  0.01820193     0.27900
H261        H  0.66563200  0.09768498  0.92908150     0.40800
H262        H  0.37377053  0.03866707  0.89447806     0.30800
H263        H  0.45423904  0.99816846  0.86379300     0.38400
H264        H  0.51618868  0.97375603  0.13531932     0.30300
H265        H  0.34821551  0.14406775  0.98156526     0.30400
H266        H  0.33295536  0.88591660  0.05953913     0.30600
Zr267      Zr  0.58591128  0.07441051  0.51037616     2.17500
O268        O  0.65939508  0.13513607  0.53890503    -0.51700
O269        O  0.59476373  0.14536943  0.46008431    -0.74900
O270        O  0.68044999  0.03972427  0.50433316    -0.81700
O271        O  0.46874166  0.13824953  0.56440437    -0.83500
O272        O  0.67270689  0.95473505  0.47651661    -0.79100
O273        O  0.56270297  0.13986902  0.56123952    -0.90700
O274        O  0.57921661  0.09127671  0.40897468    -0.76700
O275        O  0.57748168  0.02131938  0.45213574    -0.86200
O276        O  0.49950323  0.09600646  0.48042235    -0.85900
O277        O  0.58586002  0.97886028  0.52977578    -0.72600
O278        O  0.51260671  0.04677604  0.55485713    -0.84800
Zr279      Zr  0.41869791  0.91939910  0.48580803     2.26400
Zr280      Zr  0.57494732  0.92637431  0.47112767     2.06300
Zr281      Zr  0.42695984  0.06644889  0.52383814     2.10000
Zr282      Zr  0.49199514  0.04241488  0.42279081     1.78800
O283        O  0.37001459  0.09310654  0.57792364    -0.93600
O284        O  0.51690485  0.00805833  0.35944280    -0.41400
O285        O  0.41765227  0.01415270  0.46573505    -0.78000
O286        O  0.48998222  0.94758862  0.44008557    -0.96700
O287        O  0.50379834  0.89812708  0.51587004    -0.90000
O288        O  0.42679866  0.97251019  0.54375397    -0.92800
C289        C  0.58953069  0.13877355  0.42349650     1.00900
C290        C  0.51727254  0.15713018  0.57479181     1.13800
C291        C  0.70152338  0.99622205  0.49049697     1.04600
O292        O  0.62306297  0.91083146  0.41073446    -0.95000
O293        O  0.53262891  0.84634915  0.43739921    -0.90700
O294        O  0.43918040  0.84032034  0.44585108    -0.83900
C295        C  0.48384920  0.82377164  0.43087521     1.11300
O296        O  0.58235870  0.97635372  0.62202955    -0.97000
Zr297      Zr  0.51204011  0.95214359  0.57314747     1.88900
O298        O  0.40511923  0.84554200  0.53310256    -0.73600
O299        O  0.61575612  0.84986929  0.50412542    -0.52900
O300        O  0.56730265  0.87584468  0.59202690    -0.97600
O301        O  0.46981061  0.98380191  0.63241654    -0.54800
O302        O  0.44438529  0.87852357  0.58899944    -0.74100
C303        C  0.41562042  0.84226009  0.56944575     0.98200
O304        O  0.34496981  0.89322872  0.43949872    -0.63000
O305        O  0.39317525  0.14225620  0.48596389    -0.57800
O306        O  0.32598736  0.94096306  0.50696456    -0.94400
O307        O  0.32952525  0.03299534  0.51991393    -0.92900
O308        O  0.45692166  0.13097694  0.40516240    -0.93200
O309        O  0.41784851  0.03127292  0.37507598    -0.92000
C310        C  0.30311292  0.98576390  0.51547624     1.17100
H311        H  0.49765869  0.13499620  0.47550590     0.33000
H312        H  0.48457354  0.92817568  0.41591208     0.43900
H313        H  0.39647977  0.96371541  0.56131044     0.37400
H314        H  0.61999939  0.97126904  0.54272301     0.33900
H315        H  0.52331226  0.04161260  0.34329463     0.25600
H316        H  0.58594169  0.81997665  0.50481387     0.31600
H317        H  0.54640025  0.84215993  0.58253246     0.37500
H318        H  0.47191312  0.13887523  0.37895212     0.32000
H319        H  0.36281703  0.12499767  0.46995088     0.30800
H320        H  0.34678822  0.12185630  0.56744393     0.32500
H321        H  0.43000781  0.97187354  0.63020941     0.31500
H322        H  0.40288261  0.99263038  0.37838248     0.35500
H323        H  0.32454629  0.92688314  0.43551208     0.28200
H324        H  0.68632950  0.14378967  0.51787119     0.32400
H325        H  0.57088814  0.95514269  0.64549790     0.35300
H326        H  0.37434793  0.16516666  0.50487575     0.27900
H327        H  0.36374822  0.88869777  0.41438778     0.40800
H328        H  0.63449086  0.94824554  0.40105543     0.30800
H329        H  0.55422559  0.99428273  0.36315797     0.38400
H330        H  0.47093169  0.02447365  0.62979702     0.30300
H331        H  0.64305895  0.83681263  0.48550556     0.30400
H332        H  0.67902904  0.11220579  0.55756739     0.30600
O333        O  0.65930966  0.49444381  0.17775567    -0.75700
O334        O  0.67104705  0.41798118  0.21481461    -0.54600
C335        C  0.68341707  0.45013083  0.18615082     0.78000
O336        O  0.51869740  0.61536444  0.33203365    -0.60300
O337        O  0.44446910  0.63222836  0.29369184    -0.53300
C338        C  0.47830366  0.64407461  0.32195692     0.70100
O339        O  0.63549472  0.48097614  0.34280005    -0.74900
O340        O  0.65630985  0.40949391  0.30385206    -0.55400
C341        C  0.66249059  0.43843336  0.33478358     0.76100
O342        O  0.53874973  0.62711306  0.17854397    -0.60000
O343        O  0.45245158  0.63480767  0.20370325    -0.53100
C344        C  0.49345563  0.65167126  0.18198005     0.72600
Zr345      Zr  0.58319051  0.54638130  0.20145420     2.54700
O346        O  0.65763486  0.61200173  0.22222998    -0.80600
O347        O  0.60323989  0.56987213  0.13408153    -0.94000
Zr348      Zr  0.56509188  0.53498979  0.31317241     2.64700
O349        O  0.64385822  0.60258581  0.31498842    -0.98900
O350        O  0.55684201  0.53866704  0.38329196    -0.81000
O351        O  0.61423289  0.50458321  0.25894089    -0.84400
O352        O  0.53662724  0.57935190  0.25584509    -2.19100
O353        O  0.38386947  0.46588038  0.16489699    -0.67700
O354        O  0.36443574  0.54271375  0.19890306    -0.52300
C355        C  0.35368330  0.50593101  0.17242494     0.71000
O356        O  0.49495680  0.33807273  0.32647654    -0.60600
O357        O  0.57411810  0.32640148  0.29232857    -0.52600
C358        C  0.53935558  0.31307770  0.31932900     0.72800
O359        O  0.36489209  0.46336119  0.31829874    -0.72000
O360        O  0.35748199  0.54614430  0.28787256    -0.50700
C361        C  0.34024372  0.50789670  0.31162831     0.74200
O362        O  0.52152395  0.35402363  0.16280157    -0.67400
O363        O  0.59214353  0.33757487  0.20436244    -0.54600
C364        C  0.56469369  0.32892637  0.17281432     0.72600
Zr365      Zr  0.46533786  0.42554369  0.18815371     2.77500
O366        O  0.39869148  0.34615409  0.18814349    -0.98100
O367        O  0.46783935  0.43014281  0.11780537    -0.78900
Zr368      Zr  0.44643965  0.41571868  0.30015513     2.70100
O369        O  0.37647295  0.34376240  0.28216427    -0.80200
O370        O  0.42766046  0.40033923  0.36875442    -0.99300
Zr371      Zr  0.58772578  0.40852353  0.25312315     2.21500
Zr372      Zr  0.43960872  0.55524337  0.24718812     2.11100
O373        O  0.41733327  0.45780489  0.24247419    -2.48000
O374        O  0.49204953  0.38092270  0.24547698    -0.80000
O375        O  0.48711146  0.52241132  0.19207677    -0.72200
O376        O  0.54138160  0.43985417  0.30881555    -2.33100
O377        O  0.55966323  0.45121004  0.19493332    -2.29300
O378        O  0.46866631  0.51219070  0.30570095    -0.73900
H379        H  0.54391825  0.61886259  0.25771832     0.78100
H380        H  0.55291828  0.42245794  0.33231555     0.79100
H381        H  0.37790113  0.44985621  0.23957178     0.81400
H382        H  0.57745169  0.43804628  0.17216204     0.79000
H383        H  0.52501960  0.51239446  0.38932713     0.42000
H384        H  0.42698615  0.43771318  0.38007070     0.41000
H385        H  0.39790553  0.31207679  0.27465078     0.40700
H386        H  0.38745724  0.34176798  0.16069071     0.38600
H387        H  0.50017432  0.45589388  0.11198710     0.41700
H388        H  0.60060685  0.53422199  0.12013220     0.36500
H389        H  0.64662999  0.64813604  0.21254092     0.42600
H390        H  0.65058487  0.60929626  0.34291463     0.39000
H391        H  0.42099492  0.31416263  0.19352840     0.44000
H392        H  0.64313474  0.58195210  0.13359684     0.42700
H393        H  0.67577025  0.58204144  0.30653004     0.42800
H394        H  0.38873280  0.38506067  0.36990192     0.43200
O395        O  0.62181865  0.53468094  0.67257432    -0.75700
O396        O  0.63605444  0.45268607  0.70215133    -0.54600
C397        C  0.65061398  0.49329968  0.67941107     0.78000
O398        O  0.48087649  0.63606638  0.83146047    -0.60300
O399        O  0.41131720  0.65686149  0.79037460    -0.53300
C400        C  0.43928584  0.66372636  0.82183353     0.70100
O401        O  0.62656148  0.53439224  0.81677072    -0.74900
O402        O  0.63661308  0.45060146  0.78890260    -0.55400
C403        C  0.65281539  0.49075576  0.81140744     0.76100
O404        O  0.47305862  0.63421807  0.65747985    -0.60000
O405        O  0.40405877  0.65285440  0.69935768    -0.53100
C406        C  0.43071571  0.66036772  0.66747481     0.72600
Zr407      Zr  0.53292503  0.56832986  0.68624843     2.54700
O408        O  0.59214671  0.65328616  0.68427782    -0.80600
O409        O  0.54048261  0.55946704  0.61620250    -0.94000
Zr410      Zr  0.54054104  0.57339091  0.79938338     2.64700
O411        O  0.59873967  0.65623229  0.78471809    -0.98900
O412        O  0.56452521  0.58443983  0.86745142    -0.81000
O413        O  0.57641776  0.53523520  0.74260353    -0.84400
O414        O  0.50016372  0.60962418  0.74303682    -2.19100
O415        O  0.34935400  0.50368846  0.66244944    -0.67700
O416        O  0.32523371  0.56923339  0.70516146    -0.52300
C417        C  0.31989058  0.54357129  0.67287839     0.71000
O418        O  0.47058154  0.36971458  0.82391381    -0.60600
O419        O  0.55052320  0.35884982  0.79056937    -0.52600
C420        C  0.51365605  0.34365842  0.81606491     0.72800
O421        O  0.35481263  0.50674476  0.83477237    -0.72000
O422        O  0.33250353  0.57619362  0.79431282    -0.50700
C423        C  0.32672427  0.54830770  0.82577744     0.74200
O424        O  0.46512205  0.36444135  0.67421631    -0.67400
O425        O  0.55016789  0.35874563  0.70229986    -0.54600
C426        C  0.51073772  0.34080884  0.67960214     0.72600
Zr427      Zr  0.41732249  0.44565946  0.69236291     2.77500
O428        O  0.33786301  0.38193819  0.70584412    -0.98100
O429        O  0.40405029  0.42372663  0.62413658    -0.78900
Zr430      Zr  0.42421096  0.45085242  0.80557741     2.70100
O431        O  0.34570245  0.38303442  0.80239620    -0.80200
O432        O  0.42572453  0.43960701  0.87569497    -0.99300
Zr433      Zr  0.55658901  0.43771471  0.74573958     2.21500
Zr434      Zr  0.40474297  0.57942880  0.74667426     2.11100
O435        O  0.38001536  0.48270335  0.74932041    -2.48000
O436        O  0.45948032  0.41110202  0.74875923    -0.80000
O437        O  0.43815006  0.54146813  0.68890290    -0.72200
O438        O  0.52074066  0.47647008  0.80342621    -2.33100
O439        O  0.51383928  0.47115493  0.68816573    -2.29300
O440        O  0.44571427  0.54648485  0.80374542    -0.73900
H441        H  0.50507746  0.64934996  0.74193863     0.78100
H442        H  0.53836926  0.46225232  0.82615000     0.79100
H443        H  0.34032646  0.47549000  0.75059462     0.81400
H444        H  0.52929454  0.45515491  0.66539456     0.79000
H445        H  0.54959013  0.54973992  0.87973728     0.42000
H446        H  0.42924973  0.47761611  0.88612959     0.41000
H447        H  0.34655384  0.36307804  0.82740207     0.40700
H448        H  0.33122801  0.36150970  0.68133813     0.38600
H449        H  0.43102024  0.44938212  0.61059783     0.41700
H450        H  0.55220636  0.52167402  0.61175548     0.36500
H451        H  0.62955746  0.64211466  0.69131413     0.42600
H452        H  0.61917240  0.66466785  0.80907809     0.39000
H453        H  0.35233271  0.35444921  0.72382497     0.44000
H454        H  0.57322394  0.58396091  0.60911678     0.42700
H455        H  0.62717293  0.64351363  0.76684193     0.42800
H456        H  0.38766084  0.42560284  0.88261904     0.43200
C457        C  0.55873765  0.23270365  0.41133699    -0.13700
C458        C  0.58542878  0.18683483  0.39790048     0.08400
C459        C  0.59740516  0.18281002  0.35827326    -0.13700
C460        C  0.58244144  0.22380013  0.33247230    -0.13700
C461        C  0.55360627  0.26842546  0.34575417     0.08400
C462        C  0.54230450  0.27273400  0.38541813    -0.13700
H463        H  0.54776248  0.23604886  0.44157487     0.12400
H464        H  0.61705514  0.14724322  0.34717843     0.12400
H465        H  0.59215213  0.21998361  0.30205239     0.12400
H466        H  0.52108928  0.30737917  0.39644024     0.12400
C467        C  0.52711070  0.76596786  0.38135713    -0.13700
C468        C  0.47952036  0.77838687  0.40196584     0.08400
C469        C  0.42858656  0.74980367  0.39246265    -0.13700
C470        C  0.42619283  0.70814123  0.36406081    -0.13700
C471        C  0.47465281  0.69497245  0.34478400     0.08400
C472        C  0.52458729  0.72523723  0.35317402    -0.13700
H473        H  0.56688202  0.78752186  0.38705324     0.12400
H474        H  0.39094010  0.75896612  0.40736501     0.12400
H475        H  0.38739089  0.68467410  0.35852657     0.12400
H476        H  0.56259451  0.71575179  0.33877255     0.12400
C477        C  0.56840045  0.23163460  0.61500701    -0.13700
C478        C  0.51914158  0.20092259  0.60478919     0.08400
C479        C  0.46943226  0.21339876  0.62287890    -0.13700
C480        C  0.46812737  0.25699359  0.64864223    -0.13700
C481        C  0.51638463  0.28962759  0.65736122     0.08400
C482        C  0.56705272  0.27574339  0.64128751    -0.13700
H483        H  0.60740846  0.22277264  0.60181621     0.12400
H484        H  0.43071872  0.19026658  0.61651453     0.12400
H485        H  0.42864014  0.26621816  0.66101846     0.12400
H486        H  0.60486293  0.30048620  0.64753465     0.12400
C487        C  0.38341530  0.79467700  0.62937748    -0.13700
C488        C  0.39909548  0.79147578  0.59039560     0.08400
C489        C  0.41482727  0.74123133  0.57550508    -0.13700
C490        C  0.42209672  0.69701965  0.60046650    -0.13700
C491        C  0.41234958  0.70228558  0.64033143     0.08400
C492        C  0.38947387  0.75004440  0.65418783    -0.13700
H493        H  0.37126119  0.83330743  0.64130925     0.12400
H494        H  0.42747674  0.73811142  0.54557246     0.12400
H495        H  0.43849408  0.65992233  0.58900872     0.12400
H496        H  0.38089435  0.75470400  0.68471053     0.12400
C497        C  0.46724828  0.21784138  0.87278000    -0.13700
C498        C  0.51366961  0.20904494  0.89593547     0.08400
C499        C  0.56357135  0.24076674  0.88869173    -0.13700
C500        C  0.56576881  0.28244720  0.86028743    -0.13700
C501        C  0.51816257  0.29260431  0.83873539     0.08400
C502        C  0.46952855  0.25897330  0.84464943    -0.13700
H503        H  0.42857846  0.19346643  0.87669640     0.12400
H504        H  0.60040596  0.23438175  0.90561271     0.12400
H505        H  0.60346559  0.30848904  0.85666771     0.12400
H506        H  0.43223115  0.26614435  0.82840346     0.12400
C507        C  0.42435811  0.74422936  0.91377285    -0.13700
C508        C  0.41045831  0.79541555  0.89896330     0.08400
C509        C  0.39835632  0.80035139  0.85933964    -0.13700
C510        C  0.40425777  0.75603133  0.83444143    -0.13700
C511        C  0.42348849  0.70666033  0.84872475     0.08400
C512        C  0.43148756  0.70029064  0.88872745    -0.13700
H513        H  0.43434879  0.73954172  0.94414093     0.12400
H514        H  0.38765801  0.83951021  0.84726128     0.12400
H515        H  0.39755984  0.76164386  0.80370698     0.12400
H516        H  0.44548859  0.66209961  0.90039046     0.12400
C517        C  0.61055969  0.19540863  0.13323095    -0.13700
C518        C  0.59736558  0.20129940  0.09382712     0.08400
C519        C  0.58400886  0.25291390  0.07970887    -0.13700
C520        C  0.57667791  0.29591837  0.10551746    -0.13700
C521        C  0.58371135  0.28796044  0.14551001     0.08400
C522        C  0.60424252  0.23874681  0.15894841    -0.13700
H523        H  0.62073959  0.15566917  0.14462601     0.12400
H524        H  0.57318175  0.25816719  0.04953011     0.12400
H525        H  0.56216255  0.33427772  0.09451413     0.12400
H526        H  0.61063167  0.23207238  0.18960592     0.12400
C527        C  0.54024706  0.77663291  0.12306786    -0.13700
C528        C  0.49135874  0.79020211  0.10422313     0.08400
C529        C  0.44110378  0.76112002  0.11442827    -0.13700
C530        C  0.44053089  0.71768470  0.14149961    -0.13700
C531        C  0.49023748  0.70258441  0.15854428     0.08400
C532        C  0.53966174  0.73353993  0.14971819    -0.13700
H533        H  0.57958281  0.79855346  0.11668473     0.12400
H534        H  0.40252765  0.77097318  0.10083902     0.12400
H535        H  0.40185569  0.69443122  0.14772816     0.12400
H536        H  0.57854573  0.72343156  0.16279065     0.12400
C537        C  0.23093451  0.56869847  0.37458832    -0.13700
C538        C  0.20143410  0.52019744  0.38750820     0.08400
C539        C  0.21430754  0.46941958  0.37149824    -0.13700
C540        C  0.25741543  0.46651002  0.34525757    -0.13700
C541        C  0.28897720  0.51422205  0.33393470     0.08400
C542        C  0.27441272  0.56572171  0.34784435    -0.13700
H543        H  0.22173865  0.60853129  0.38607922     0.12400
H544        H  0.19206573  0.43121739  0.38002470     0.12400
H545        H  0.26722217  0.42632997  0.33465575     0.12400
H546        H  0.29832950  0.60313664  0.33963187     0.12400
C547        C  0.79421667  0.39054588  0.37714734    -0.13700
C548        C  0.79171038  0.41227313  0.41463131     0.08400
C549        C  0.74243226  0.43282106  0.42785026    -0.13700
C550        C  0.69854856  0.43821467  0.40221451    -0.13700
C551        C  0.70339510  0.42221269  0.36338036     0.08400
C552        C  0.74987810  0.39484566  0.35170336    -0.13700
H553        H  0.83239346  0.37514189  0.36649094     0.12400
H554        H  0.74021856  0.45053359  0.45651507     0.12400
H555        H  0.66234585  0.45816002  0.41209562     0.12400
H556        H  0.75410447  0.38136184  0.32206290     0.12400
C557        C  0.24820155  0.57679500  0.57920288    -0.13700
C558        C  0.20034764  0.60018930  0.59277451     0.08400
C559        C  0.19395033  0.60822272  0.63271682    -0.13700
C560        C  0.23301204  0.59010824  0.65878269    -0.13700
C561        C  0.27886469  0.56312593  0.64536635     0.08400
C562        C  0.28688420  0.55784607  0.60534925    -0.13700
H563        H  0.25381721  0.56960916  0.54858548     0.12400
H564        H  0.15725679  0.62597699  0.64390030     0.12400
H565        H  0.22633468  0.59548775  0.68949163     0.12400
H566        H  0.32275988  0.53852053  0.59429446     0.12400
C567        C  0.72186737  0.44699638  0.64087363    -0.13700
C568        C  0.70327270  0.49450107  0.65810257     0.08400
C569        C  0.73023872  0.54611437  0.64945209    -0.13700
C570        C  0.77334043  0.55066796  0.62282058    -0.13700
C571        C  0.79073286  0.50362700  0.60417899     0.08400
C572        C  0.76523046  0.45152707  0.61403441    -0.13700
H573        H  0.70113961  0.40695311  0.64660498     0.12400
H574        H  0.71658591  0.58348974  0.66241462     0.12400
H575        H  0.79236849  0.59123705  0.61642394     0.12400
H576        H  0.77798547  0.41427200  0.60047200     0.12400
C577        C  0.24601841  0.56057075  0.91833403    -0.13700
C578        C  0.19848902  0.58457230  0.90468089     0.08400
C579        C  0.19686542  0.60376205  0.86637618    -0.13700
C580        C  0.24022028  0.59471368  0.84111493    -0.13700
C581        C  0.28508503  0.56518018  0.85365176     0.08400
C582        C  0.28881809  0.55034004  0.89287002    -0.13700
H583        H  0.24756436  0.54460688  0.94760882     0.12400
H584        H  0.16014052  0.62179879  0.85525514     0.12400
H585        H  0.23672700  0.60737837  0.81117147     0.12400
H586        H  0.32362769  0.52864524  0.90347520     0.12400
C587        C  0.77524350  0.53729959  0.87283498    -0.13700
C588        C  0.78924742  0.48796012  0.89064752     0.08400
C589        C  0.76188174  0.43793064  0.87851260    -0.13700
C590        C  0.71960993  0.43781077  0.85052148    -0.13700
C591        C  0.70406232  0.48771624  0.83443552     0.08400
C592        C  0.73335040  0.53713368  0.84515788    -0.13700
H593        H  0.79579784  0.57656158  0.88084130     0.12400
H594        H  0.77203716  0.39911826  0.89136826     0.12400
H595        H  0.69726122  0.39923361  0.84299710     0.12400
H596        H  0.72248914  0.57623007  0.83302807     0.12400
C597        C  0.23574810  0.45446757  0.10791055    -0.13700
C598        C  0.21223983  0.50321660  0.09648454     0.08400
C599        C  0.23380891  0.55382838  0.11222148    -0.13700
C600        C  0.27861411  0.55541797  0.13828815    -0.13700
C601        C  0.30277159  0.50650947  0.14863956     0.08400
C602        C  0.28023662  0.45609620  0.13354159    -0.13700
H603        H  0.22008003  0.41478889  0.09683606     0.12400
H604        H  0.21617257  0.59220072  0.10436638     0.12400
H605        H  0.29528184  0.59473276  0.14938516     0.12400
H606        H  0.29747203  0.41743579  0.14130145     0.12400
C607        C  0.75150138  0.42281266  0.09140203    -0.13700
C608        C  0.80329096  0.40621473  0.10344180     0.08400
C609        C  0.81339831  0.39853400  0.14322139    -0.13700
C610        C  0.77373552  0.41104243  0.17059178    -0.13700
C611        C  0.72431221  0.43268488  0.15842348     0.08400
C612        C  0.71255223  0.43652270  0.11873427    -0.13700
H613        H  0.74264470  0.42924178  0.06103447     0.12400
H614        H  0.85309797  0.38569421  0.15322493     0.12400
H615        H  0.78276482  0.40658795  0.20112719     0.12400
H616        H  0.67356050  0.45135020  0.10888011     0.12400
C617        C  0.24217407  0.98226401  0.52080406    -0.16800
C618        C  0.20979826  0.01944797  0.50471549    -0.32000
H619        H  0.22370627  0.94719465  0.53672088     0.12200
H620        H  0.23005796  0.05403106  0.48913731     0.12800
C621        C  0.80016687  0.02362937  0.51000458    -0.20400
C622        C  0.76289724  0.99120642  0.49006718    -0.32000
H623        H  0.78574947  0.05807039  0.52635526     0.12200
H624        H  0.77811652  0.95808490  0.47276990     0.12800
C625        C  0.99077951  0.81188629  0.51948518    -0.16800
C626        C  0.01022741  0.77512511  0.49434320    -0.32000
H627        H  0.97119712  0.79626994  0.54590740     0.12200
H628        H  0.02761819  0.78976889  0.46701666     0.12800
C629        C  0.98586611  0.25559187  0.50621360    -0.16800
C630        C  0.02125332  0.22070937  0.49115670    -0.32000
H631        H  0.95094582  0.23869416  0.52313697     0.12200
H632        H  0.05734389  0.23768891  0.47549043     0.12800
C633        C  0.20739803  0.00599250  0.99370658    -0.16800
C634        C  0.24127973  0.96971060  0.97828430    -0.32000
H635        H  0.22678086  0.04272778  0.00722733     0.12200
H636        H  0.22395482  0.93253052  0.96432269     0.12800
C637        C  0.79827630  0.98293417  0.01612630    -0.16800
C638        C  0.76384672  0.02153710  0.00473126    -0.32000
H639        H  0.78033897  0.94441562  0.02804489     0.12200
H640        H  0.78149690  0.05930059  0.99151670     0.12800
C641        C  0.99352850  0.79127122  0.98134624    -0.16800
C642        C  0.00878668  0.75392741  0.00760677    -0.32000
H643        H  0.97524875  0.77648604  0.95423855     0.12200
H644        H  0.02614461  0.76810918  0.03509910     0.12800
C645        C  0.01127637  0.19887037  0.01503619    -0.16800
C646        C  0.97206239  0.23293254  0.00355559    -0.32000
H647        H  0.04987166  0.21728242  0.02674118     0.12200
H648        H  0.93435706  0.21489854  0.99030519     0.12800
loop_ 
_geom_bond_atom_site_label_1 
_geom_bond_atom_site_label_2 
_geom_bond_distance 
_geom_bond_site_symmetry_2 
_ccdc_geom_bond_type 
N1            C6   1.359       .  A
N1            C5   1.358       .  A
N1           H33   1.041   1_554  S
N2            C9   1.356       .  A
N2           C10   1.358       .  A
N3            C8   1.359       .  A
N3            C7   1.360       .  A
N3           H34   1.041       .  S
N4           C11   1.359   1_554  A
N4           C12   1.358   1_554  A
C5           C13   1.388       .  A
C5           C21   1.426   1_545  A
C6           C22   1.424   1_655  A
C6           C14   1.386       .  A
C7           C15   1.388   1_556  A
C7           C24   1.427   1_455  A
C8           C23   1.428   1_565  A
C8           C16   1.387   1_556  A
C9           C21   1.422   1_556  A
C9           C17   1.387       .  A
C10          C24   1.421       .  A
C10          C18   1.387       .  A
C11          C19   1.385       .  A
C11          C22   1.422   1_556  A
C12          C20   1.387       .  A
C12          C23   1.424       .  A
C13          C14   1.380       .  A
C13          H25   1.082       .  S
C14          H26   1.082       .  S
C15          C16   1.377       .  A
C15          H27   1.079       .  S
C16          H28   1.081       .  S
C17          C18   1.373       .  A
C17          H29   1.082       .  S
C18          H30   1.082       .  S
C19          C20   1.373       .  A
C19          H31   1.082       .  S
C20          H32   1.082       .  S
C21         C637   1.509       .  S
C22         C645   1.516       .  S
C23         C633   1.515       .  S
C24         C641   1.507       .  S
N35          C40   1.358       .  A
N35          C39   1.355       .  A
N35          H67   1.040       .  S
N36          C43   1.362       .  A
N36          C44   1.361       .  A
N37          C42   1.360       .  A
N37          C41   1.360       .  A
N37          H68   1.039       .  S
N38          C45   1.356       .  A
N38          C46   1.355       .  A
C39          C47   1.387       .  A
C39          C55   1.418       .  A
C40          C56   1.423   1_655  A
C40          C48   1.388       .  A
C41          C49   1.392       .  A
C41          C58   1.432   1_455  A
C42          C57   1.426   1_565  A
C42          C50   1.383       .  A
C43          C55   1.430   1_565  A
C43          C51   1.385       .  A
C44          C58   1.432       .  A
C44          C52   1.388       .  A
C45          C53   1.385       .  A
C45          C56   1.417       .  A
C46          C54   1.387       .  A
C46          C57   1.419       .  A
C47          C48   1.376       .  A
C47          H59   1.083       .  S
C48          H60   1.082       .  S
C49          C50   1.370       .  A
C49          H61   1.076       .  S
C50          H62   1.081       .  S
C51          C52   1.379       .  A
C51          H63   1.082       .  S
C52          H64   1.082       .  S
C53          C54   1.372       .  A
C53          H65   1.082       .  S
C54          H66   1.082       .  S
C55         C621   1.511       .  S
C56         C630   1.506       .  S
C57         C618   1.508       .  S
C58         C625   1.516       .  S
Zr69         O70   2.443       .  S
Zr69         O71   2.444   1_556  S
Zr69         O72   2.469       .  S
Zr69         O75   2.451       .  S
Zr69         O77   2.385   1_556  S
Zr69         O78   2.407   1_556  S
Zr69         O79   2.411   1_655  S
Zr69         O80   2.401       .  S
O70         H126   0.990       .  S
O70         H134   0.991       .  S
O71          C91   1.281       .  A
O72          C93   1.289   1_556  A
O73         Zr83   2.429       .  S
O73          C92   1.287       .  A
O74         Zr82   2.460       .  S
O74          C93   1.290   1_455  A
O75          C92   1.288       .  A
O76         Zr84   2.398       .  S
O76          C91   1.269       .  A
O77         Zr82   2.390   1_655  S
O77         Zr84   2.380       .  S
O78         Zr83   2.398   1_554  S
O78         Zr84   2.382       .  S
O78         H113   0.966       .  S
O79         Zr82   2.407   1_556  S
O79         Zr99   2.395       .  S
O79         H116   0.965       .  S
O80         Zr83   2.396       .  S
O80         Zr99   2.369   1_655  S
Zr81        O106   2.444       .  S
Zr81        O100   2.449   1_554  S
Zr81        O108   2.452       .  S
Zr81         O96   2.426       .  S
Zr81         O87   2.403   1_455  S
Zr81         O88   2.412       .  S
Zr81         O89   2.385   1_554  S
Zr81         O90   2.381   1_554  S
Zr82        O101   2.435   1_554  S
Zr82         O94   2.435       .  S
Zr82         O95   2.452       .  S
Zr82         O88   2.406       .  S
Zr82         O89   2.395   1_554  S
Zr83         O85   2.437       .  S
Zr83        O107   2.435   1_556  S
Zr83        O109   2.449       .  S
Zr83         O87   2.395   1_556  S
Zr83         O90   2.390   1_655  S
Zr84        O110   2.439       .  S
Zr84        O111   2.435       .  S
Zr84         O86   2.435       .  S
Zr84         O87   2.398       .  S
Zr84         O88   2.379   1_655  S
O85         H122   0.990       .  S
O86         H117   0.991       .  S
O86         H131   0.990       .  S
O88         H114   0.964       .  S
O89         Zr99   2.384       .  S
O90         Zr99   2.386       .  S
O90         H115   0.966       .  S
C91         C608   1.470       .  S
C92         C588   1.486       .  S
C93         C646   1.502       .  S
O94         H130   0.990       .  S
O95          C97   1.290       .  A
O96          C97   1.283       .  A
C97         C598   1.485       .  S
O98         Zr99   2.438       .  S
O98         H127   0.990       .  S
Zr99        O102   2.437       .  S
Zr99        O103   2.441   1_455  S
Zr99        O104   2.388       .  S
O100        C105   1.284       .  A
O101        H118   0.990       .  S
O101        H133   0.990   1_556  S
O102        H119   0.990       .  S
O103        H123   0.990   1_655  S
O103        H132   0.990       .  S
O104        C105   1.275       .  A
C105        C578   1.462       .  S
O106        H125   0.990       .  S
O106        H129   0.991       .  S
O107        H121   0.990       .  S
O107        H128   0.990   1_554  S
O108        C112   1.285       .  A
O109        C112   1.286   1_656  A
O110        H120   0.990       .  S
O111        H124   0.990       .  S
C112        C642   1.488       .  S
Zr135       O136   2.441       .  S
Zr135       O137   2.437       .  S
Zr135       O138   2.475       .  S
Zr135       O141   2.453       .  S
Zr135       O143   2.395       .  S
Zr135       O144   2.414       .  S
Zr135       O145   2.412   1_455  S
Zr135       O146   2.402       .  S
O136        H192   0.990       .  S
O136        H200   0.990       .  S
O137        C157   1.277       .  A
O138        C159   1.292       .  A
O139       Zr149   2.421       .  S
O139        C158   1.285       .  A
O140       Zr148   2.444       .  S
O140        C159   1.286   1_655  A
O141        C158   1.288       .  A
O142       Zr150   2.404       .  S
O142        C157   1.268       .  A
O143       Zr148   2.394   1_455  S
O143       Zr150   2.382       .  S
O144       Zr149   2.393       .  S
O144       Zr150   2.381       .  S
O144        H179   0.966       .  S
O145       Zr148   2.409       .  S
O145       Zr165   2.386       .  S
O145        H182   0.965       .  S
O146       Zr149   2.397       .  S
O146       Zr165   2.372   1_455  S
Zr147       O172   2.443       .  S
Zr147       O166   2.439       .  S
Zr147       O174   2.439       .  S
Zr147       O162   2.417       .  S
Zr147       O153   2.398   1_655  S
Zr147       O154   2.409       .  S
Zr147       O155   2.381       .  S
Zr147       O156   2.378       .  S
Zr148       O167   2.435       .  S
Zr148       O160   2.435       .  S
Zr148       O161   2.448       .  S
Zr148       O154   2.404       .  S
Zr148       O155   2.392       .  S
Zr149       O151   2.436       .  S
Zr149       O173   2.435       .  S
Zr149       O175   2.448       .  S
Zr149       O153   2.388       .  S
Zr149       O156   2.389   1_455  S
Zr150       O176   2.437       .  S
Zr150       O177   2.434       .  S
Zr150       O152   2.435       .  S
Zr150       O153   2.398       .  S
Zr150       O154   2.377   1_455  S
O151        H188   0.990       .  S
O152        H183   0.991       .  S
O152        H197   0.990       .  S
O154        H180   0.964       .  S
O155       Zr165   2.384       .  S
O156       Zr165   2.383       .  S
O156        H181   0.966       .  S
C157        C558   1.470       .  S
C158        C538   1.486       .  S
C159        C626   1.491       .  S
O160        H196   0.990       .  S
O161        C163   1.289       .  A
O162        C163   1.281       .  A
C163        C571   1.482       .  S
O164       Zr165   2.439       .  S
O164        H193   0.990       .  S
Zr165       O168   2.438       .  S
Zr165       O169   2.438       .  S
Zr165       O170   2.385       .  S
O166        C171   1.283       .  A
O167        H184   0.990       .  S
O167        H199   0.990       .  S
O168        H185   0.990       .  S
O169        H189   0.990       .  S
O169        H198   0.990       .  S
O170        C171   1.275       .  A
C171        C548   1.455       .  S
O172        H191   0.991       .  S
O172        H195   0.990       .  S
O173        H187   0.990       .  S
O173        H194   0.990       .  S
O174        C178   1.283       .  A
O175        C178   1.287   1_455  A
O176        H186   0.990       .  S
O177        H190   0.990       .  S
C178        C629   1.488       .  S
Zr201       O202   2.441       .  S
Zr201       O203   2.435   1_554  S
Zr201       O204   2.461   1_554  S
Zr201       O207   2.441       .  S
Zr201       O209   2.382   1_554  S
Zr201       O210   2.398   1_554  S
Zr201       O211   2.406   1_565  S
Zr201       O212   2.402       .  S
O202        H258   0.990       .  S
O202        H266   0.990       .  S
O203        C223   1.282       .  A
O204        C225   1.288       .  A
O205       Zr215   2.433       .  S
O205        C224   1.287       .  A
O206       Zr214   2.449       .  S
O206        C225   1.287   1_545  A
O207        C224   1.286       .  A
O208       Zr216   2.408       .  S
O208        C223   1.275       .  A
O209       Zr214   2.396   1_565  S
O209       Zr216   2.379       .  S
O210       Zr215   2.396   1_556  S
O210       Zr216   2.375       .  S
O210        H245   0.966       .  S
O211       Zr214   2.399   1_554  S
O211       Zr231   2.394       .  S
O211        H248   0.966       .  S
O212       Zr215   2.394       .  S
O212       Zr231   2.376   1_565  S
Zr213       O238   2.442       .  S
Zr213       O232   2.447   1_556  S
Zr213       O240   2.444       .  S
Zr213       O228   2.431       .  S
Zr213       O219   2.405   1_545  S
Zr213       O220   2.406       .  S
Zr213       O221   2.387   1_556  S
Zr213       O222   2.381   1_556  S
Zr214       O233   2.436   1_556  S
Zr214       O226   2.433       .  S
Zr214       O227   2.443       .  S
Zr214       O220   2.402       .  S
Zr214       O221   2.392   1_556  S
Zr215       O217   2.435       .  S
Zr215       O239   2.436   1_554  S
Zr215       O241   2.458       .  S
Zr215       O219   2.393   1_554  S
Zr215       O222   2.386   1_565  S
Zr216       O242   2.437       .  S
Zr216       O243   2.435       .  S
Zr216       O218   2.439       .  S
Zr216       O219   2.401       .  S
Zr216       O220   2.372   1_565  S
O217        H254   0.990       .  S
O218        H249   0.990       .  S
O218        H263   0.990       .  S
O220        H246   0.965       .  S
O221       Zr231   2.380       .  S
O222       Zr231   2.385       .  S
O222        H247   0.966       .  S
C223        C508   1.469       .  S
C224        C528   1.488       .  S
C225        C634   1.490       .  S
O226        H262   0.990       .  S
O227        C229   1.289       .  A
O228        C229   1.284       .  A
C229        C498   1.485       .  S
O230       Zr231   2.440       .  S
O230        H259   0.990       .  S
Zr231       O234   2.438       .  S
Zr231       O235   2.440       .  S
Zr231       O236   2.394       .  S
O232        C237   1.286       .  A
O233        H250   0.990       .  S
O233        H265   0.990   1_554  S
O234        H251   0.990       .  S
O235        H255   0.990       .  S
O235        H264   0.990   1_545  S
O236        C237   1.277       .  A
C237        C518   1.465       .  S
O238        H257   0.990       .  S
O238        H261   0.991       .  S
O239        H253   0.990       .  S
O239        H260   0.990   1_556  S
O240        C244   1.284   1_556  A
O241        C244   1.289   1_565  A
O242        H252   0.990       .  S
O243        H256   0.990       .  S
C244        C638   1.493       .  S
Zr267       O268   2.443       .  S
Zr267       O269   2.444       .  S
Zr267       O270   2.495       .  S
Zr267       O273   2.463       .  S
Zr267       O275   2.394       .  S
Zr267       O276   2.415       .  S
Zr267       O277   2.413   1_545  S
Zr267       O278   2.411       .  S
O268        H324   0.991       .  S
O268        H332   0.990       .  S
O269        C289   1.280       .  A
O270        C291   1.295   1_545  A
O271       Zr281   2.410       .  S
O271        C290   1.283       .  A
O272       Zr280   2.426       .  S
O272        C291   1.283       .  A
O273        C290   1.290       .  A
O274       Zr282   2.402       .  S
O274        C289   1.269       .  A
O275       Zr280   2.392   1_545  S
O275       Zr282   2.383       .  S
O276       Zr281   2.386       .  S
O276       Zr282   2.382       .  S
O276        H311   0.965       .  S
O277       Zr280   2.402       .  S
O277       Zr297   2.391       .  S
O277        H314   0.965       .  S
O278       Zr281   2.403       .  S
O278       Zr297   2.381   1_545  S
Zr279       O304   2.446       .  S
Zr279       O298   2.430       .  S
Zr279       O306   2.448       .  S
Zr279       O294   2.445       .  S
Zr279       O285   2.403   1_565  S
Zr279       O286   2.407       .  S
Zr279       O287   2.387       .  S
Zr279       O288   2.385       .  S
Zr280       O299   2.437       .  S
Zr280       O292   2.434       .  S
Zr280       O293   2.436       .  S
Zr280       O286   2.398       .  S
Zr280       O287   2.383       .  S
Zr281       O283   2.438       .  S
Zr281       O305   2.437       .  S
Zr281       O307   2.446       .  S
Zr281       O285   2.381       .  S
Zr281       O288   2.380   1_545  S
Zr282       O308   2.436       .  S
Zr282       O309   2.435       .  S
Zr282       O284   2.436       .  S
Zr282       O285   2.400       .  S
Zr282       O286   2.375   1_545  S
O283        H320   0.990       .  S
O284        H315   0.991       .  S
O284        H329   0.990   1_545  S
O286        H312   0.965       .  S
O287       Zr297   2.378       .  S
O288       Zr297   2.374       .  S
O288        H313   0.966       .  S
C289        C458   1.470       .  S
C290        C478   1.486       .  S
C291        C622   1.497       .  S
O292        H328   0.990       .  S
O293        C295   1.288       .  A
O294        C295   1.287       .  A
C295        C468   1.488       .  S
O296       Zr297   2.439       .  S
O296        H325   0.990       .  S
Zr297       O300   2.438       .  S
Zr297       O301   2.439       .  S
Zr297       O302   2.408       .  S
O298        C303   1.284       .  A
O299        H316   0.990       .  S
O299        H331   0.990       .  S
O300        H317   0.990       .  S
O301        H321   0.990       .  S
O301        H330   0.990   1_565  S
O302        C303   1.280       .  A
C303        C488   1.462       .  S
O304        H323   0.990       .  S
O304        H327   0.990       .  S
O305        H319   0.990       .  S
O305        H326   0.990       .  S
O306        C310   1.286       .  A
O307        C310   1.286   1_545  A
O308        H318   0.990       .  S
O309        H322   0.990   1_545  S
C310        C617   1.482       .  S
O333       Zr345   2.441       .  S
O333        C335   1.288       .  A
O334       Zr371   2.412       .  S
O334        C335   1.284       .  A
C335        C611   1.462       .  S
O336       Zr348   2.404       .  S
O336        C338   1.282       .  A
O337       Zr372   2.465       .  S
O337        C338   1.293       .  A
C338        C471   1.475       .  S
O339       Zr348   2.435       .  S
O339        C341   1.288       .  A
O340       Zr371   2.408       .  S
O340        C341   1.284       .  A
C341        C551   1.466       .  S
O342       Zr345   2.424       .  S
O342        C344   1.286       .  A
O343       Zr372   2.449       .  S
O343        C344   1.290       .  A
C344        C531   1.482       .  S
Zr345       O346   2.435       .  S
Zr345       O347   2.438       .  S
Zr345       O351   2.370       .  S
Zr345       O352   2.361       .  S
Zr345       O375   2.380       .  S
Zr345       O377   2.356       .  S
O346        H389   0.990       .  S
O347        H388   0.990       .  S
O347        H392   0.990       .  S
Zr348       O349   2.435       .  S
Zr348       O350   2.434       .  S
Zr348       O352   2.373       .  S
Zr348       O351   2.367       .  S
Zr348       O376   2.350       .  S
Zr348       O378   2.375       .  S
O349        H390   0.990       .  S
O349        H393   0.990       .  S
O350        H383   0.990       .  S
O351       Zr371   2.388       .  S
O352       Zr372   2.399       .  S
O352        H379   0.967       .  S
O353       Zr365   2.391       .  S
O353        C355   1.280       .  A
O354       Zr372   2.468       .  S
O354        C355   1.295       .  A
C355        C601   1.479       .  S
O356       Zr368   2.454       .  S
O356        C358   1.291       .  A
O357       Zr371   2.413       .  S
O357        C358   1.285       .  A
C358        C461   1.472       .  S
O359       Zr368   2.433       .  S
O359        C361   1.287       .  A
O360       Zr372   2.435       .  S
O360        C361   1.288       .  A
C361        C541   1.478       .  S
O362       Zr365   2.438       .  S
O362        C364   1.287       .  A
O363       Zr371   2.420       .  S
O363        C364   1.285       .  A
C364        C521   1.469       .  S
Zr365       O366   2.433       .  S
Zr365       O367   2.434       .  S
Zr365       O373   2.371       .  S
Zr365       O374   2.363       .  S
Zr365       O377   2.337       .  S
Zr365       O375   2.382       .  S
O366        H386   0.990       .  S
O366        H391   0.990       .  S
O367        H387   0.990       .  S
Zr368       O369   2.434       .  S
Zr368       O370   2.438       .  S
Zr368       O374   2.375       .  S
Zr368       O373   2.363       .  S
Zr368       O378   2.378       .  S
Zr368       O376   2.351       .  S
O369        H385   0.990       .  S
O370        H384   0.990       .  S
O370        H394   0.990       .  S
Zr371       O374   2.381       .  S
Zr371       O376   2.381       .  S
Zr371       O377   2.376       .  S
Zr372       O373   2.399       .  S
Zr372       O375   2.391       .  S
Zr372       O378   2.397       .  S
O373        H381   0.966       .  S
O376        H380   0.963       .  S
O377        H382   0.963       .  S
O395       Zr407   2.396       .  S
O395        C397   1.279       .  A
O396       Zr433   2.453       .  S
O396        C397   1.291       .  A
C397        C568   1.471       .  S
O398       Zr410   2.434       .  S
O398        C400   1.287       .  A
O399       Zr434   2.412       .  S
O399        C400   1.284       .  A
C400        C511   1.468       .  S
O401       Zr410   2.413       .  S
O401        C403   1.283       .  A
O402       Zr433   2.444       .  S
O402        C403   1.289       .  A
C403        C591   1.476       .  S
O404       Zr407   2.433       .  S
O404        C406   1.287       .  A
O405       Zr434   2.416       .  S
O405        C406   1.285       .  A
C406        C491   1.470       .  S
Zr407       O408   2.436       .  S
Zr407       O409   2.439       .  S
Zr407       O413   2.372       .  S
Zr407       O414   2.367       .  S
Zr407       O437   2.344       .  S
Zr407       O439   2.376       .  S
O408        H451   0.990       .  S
O409        H450   0.990       .  S
O409        H454   0.990       .  S
Zr410       O411   2.434       .  S
Zr410       O412   2.432       .  S
Zr410       O414   2.367       .  S
Zr410       O413   2.363       .  S
Zr410       O438   2.375       .  S
Zr410       O440   2.349       .  S
O411        H452   0.990       .  S
O411        H455   0.990       .  S
O412        H445   0.990       .  S
O413       Zr433   2.388       .  S
O414       Zr434   2.379       .  S
O414        H441   0.965       .  S
O415       Zr427   2.455       .  S
O415        C417   1.291       .  A
O416       Zr434   2.395       .  S
O416        C417   1.281       .  A
C417        C561   1.471       .  S
O418       Zr430   2.410       .  S
O418        C420   1.282       .  A
O419       Zr433   2.457       .  S
O419        C420   1.291       .  A
C420        C501   1.474       .  S
O421       Zr430   2.446       .  S
O421        C423   1.288       .  A
O422       Zr434   2.401       .  S
O422        C423   1.283       .  A
C423        C581   1.473       .  S
O424       Zr427   2.433       .  S
O424        C426   1.288       .  A
O425       Zr433   2.435       .  S
O425        C426   1.288       .  A
C426        C481   1.477       .  S
Zr427       O428   2.434       .  S
Zr427       O429   2.434       .  S
Zr427       O435   2.371       .  S
Zr427       O436   2.372       .  S
Zr427       O439   2.381       .  S
Zr427       O437   2.352       .  S
O428        H448   0.990       .  S
O428        H453   0.990       .  S
O429        H449   0.990       .  S
Zr430       O431   2.435       .  S
Zr430       O432   2.438       .  S
Zr430       O436   2.375       .  S
Zr430       O435   2.367       .  S
Zr430       O440   2.348       .  S
Zr430       O438   2.378       .  S
O431        H447   0.990       .  S
O432        H446   0.990       .  S
O432        H456   0.990       .  S
Zr433       O436   2.398       .  S
Zr433       O438   2.395       .  S
Zr433       O439   2.402       .  S
Zr434       O435   2.388       .  S
Zr434       O437   2.367       .  S
Zr434       O440   2.364       .  S
O435        H443   0.966       .  S
O438        H442   0.966       .  S
O439        H444   0.965       .  S
C457        C458   1.403       .  A
C457        C462   1.395       .  A
C457        H463   1.083       .  S
C458        C459   1.405       .  A
C459        C460   1.398       .  A
C459        H464   1.083       .  S
C460        C461   1.404       .  A
C460        H465   1.083       .  S
C461        C462   1.404       .  A
C462        H466   1.083       .  S
C467        C468   1.404       .  A
C467        C472   1.388       .  A
C467        H473   1.083       .  S
C468        C469   1.413       .  A
C469        C470   1.410       .  A
C469        H474   1.083       .  S
C470        C471   1.404       .  A
C470        H475   1.083       .  S
C471        C472   1.403       .  A
C472        H476   1.084       .  S
C477        C478   1.409       .  A
C477        C482   1.408       .  A
C477        H483   1.083       .  S
C478        C479   1.407       .  A
C479        C480   1.387       .  A
C479        H484   1.083       .  S
C480        C481   1.401       .  A
C480        H485   1.084       .  S
C481        C482   1.407       .  A
C482        H486   1.083       .  S
C487        C488   1.404       .  A
C487        C492   1.395       .  A
C487        H493   1.084       .  S
C488        C489   1.401       .  A
C489        C490   1.395       .  A
C489        H494   1.084       .  S
C490        C491   1.406       .  A
C490        H495   1.083       .  S
C491        C492   1.402       .  A
C492        H496   1.083       .  S
C497        C498   1.403       .  A
C497        C502   1.390       .  A
C497        H503   1.083       .  S
C498        C499   1.412       .  A
C499        C500   1.407       .  A
C499        H504   1.083       .  S
C500        C501   1.403       .  A
C500        H505   1.083       .  S
C501        C502   1.404       .  A
C502        H506   1.084       .  S
C507        C508   1.403       .  A
C507        C512   1.395       .  A
C507        H513   1.083       .  S
C508        C509   1.406       .  A
C509        C510   1.394       .  A
C509        H514   1.083       .  S
C510        C511   1.401       .  A
C510        H515   1.083       .  S
C511        C512   1.405       .  A
C512        H516   1.083       .  S
C517        C518   1.406       .  A
C517        C522   1.395       .  A
C517        H523   1.084       .  S
C518        C519   1.400       .  A
C519        C520   1.395       .  A
C519        H524   1.083       .  S
C520        C521   1.406       .  A
C520        H525   1.083       .  S
C521        C522   1.400       .  A
C522        H526   1.083       .  S
C527        C528   1.405       .  A
C527        C532   1.391       .  A
C527        H533   1.083       .  S
C528        C529   1.411       .  A
C529        C530   1.407       .  A
C529        H534   1.083       .  S
C530        C531   1.406       .  A
C530        H535   1.083       .  S
C531        C532   1.405       .  A
C532        H536   1.084       .  S
C537        C538   1.410       .  A
C537        C542   1.407       .  A
C537        H543   1.083       .  S
C538        C539   1.406       .  A
C539        C540   1.389       .  A
C539        H544   1.083       .  S
C540        C541   1.402       .  A
C540        H545   1.084       .  S
C541        C542   1.407       .  A
C542        H546   1.083       .  S
C547        C548   1.403       .  A
C547        C552   1.393       .  A
C547        H553   1.084       .  S
C548        C549   1.399       .  A
C549        C550   1.392       .  A
C549        H554   1.084       .  S
C550        C551   1.405       .  A
C550        H555   1.083       .  S
C551        C552   1.402       .  A
C552        H556   1.083       .  S
C557        C558   1.403       .  A
C557        C562   1.396       .  A
C557        H563   1.083       .  S
C558        C559   1.405       .  A
C559        C560   1.393       .  A
C559        H564   1.083       .  S
C560        C561   1.404       .  A
C560        H565   1.083       .  S
C561        C562   1.404       .  A
C562        H566   1.083       .  S
C567        C568   1.399       .  A
C567        C572   1.401       .  A
C567        H573   1.083       .  S
C568        C569   1.407       .  A
C569        C570   1.391       .  A
C569        H574   1.084       .  S
C570        C571   1.401       .  A
C570        H575   1.083       .  S
C571        C572   1.413       .  A
C572        H576   1.082       .  S
C577        C578   1.401       .  A
C577        C582   1.395       .  A
C577        H583   1.084       .  S
C578        C579   1.403       .  A
C579        C580   1.395       .  A
C579        H584   1.084       .  S
C580        C581   1.404       .  A
C580        H585   1.083       .  S
C581        C582   1.405       .  A
C582        H586   1.083       .  S
C587        C588   1.405       .  A
C587        C592   1.391       .  A
C587        H593   1.083       .  S
C588        C589   1.410       .  A
C589        C590   1.405       .  A
C589        H594   1.083       .  S
C590        C591   1.404       .  A
C590        H595   1.083       .  S
C591        C592   1.404       .  A
C592        H596   1.084       .  S
C597        C598   1.401       .  A
C597        C602   1.390       .  A
C597        H603   1.083       .  S
C598        C599   1.414       .  A
C599        C600   1.405       .  A
C599        H604   1.083       .  S
C600        C601   1.401       .  A
C600        H605   1.083       .  S
C601        C602   1.409       .  A
C602        H606   1.084       .  S
C607        C608   1.401       .  A
C607        C612   1.392       .  A
C607        H613   1.083       .  S
C608        C609   1.409       .  A
C609        C610   1.397       .  A
C609        H614   1.083       .  S
C610        C611   1.399       .  A
C610        H615   1.083       .  S
C611        C612   1.404       .  A
C612        H616   1.084       .  S
C617        C618   1.349   1_565  D
C617        H619   1.085       .  S
C618        H620   1.087       .  S
C621        C622   1.347   1_545  D
C621        H623   1.087       .  S
C622        H624   1.087       .  S
C625        C626   1.354   1_655  D
C625        H627   1.086       .  S
C626        H628   1.085       .  S
C629        C630   1.348   1_655  D
C629        H631   1.087       .  S
C630        H632   1.086       .  S
C633        C634   1.352   1_545  D
C633        H635   1.087   1_556  S
C634        H636   1.085       .  S
C637        C638   1.350   1_565  D
C637        H639   1.086       .  S
C638        H640   1.087   1_554  S
C641        C642   1.348   1_656  D
C641        H643   1.087       .  S
C642        H644   1.085       .  S
C645        C646   1.355   1_455  D
C645        H647   1.086       .  S
C646        H648   1.086   1_554  S
