geometry optimzed in LAMMPS
_audit_creation_date              2020-11-30 
_audit_creation_method            'lammps2cif' 
_symmetry_space_group_name_H-M    'P1' 
_symmetry_Int_Tables_number       1 
_symmetry_cell_setting            triclinic 
loop_ 
_symmetry_equiv_pos_as_xyz 
  x,y,z 
_cell_length_a                    35.17702608 
_cell_length_b                    35.09618614942341 
_cell_length_c                    86.52178482270605 
_cell_angle_alpha                 89.9109646469604 
_cell_angle_beta                  90.09352549905061 
_cell_angle_gamma                 119.94147516668906 
loop_ 
_atom_site_label 
_atom_site_type_symbol 
_atom_site_fract_x 
_atom_site_fract_y 
_atom_site_fract_z 
_atom_site_charge 
C1          C  0.65112283  0.09015423  0.71508945     0.80800
N2          N  0.61763243  0.04951517  0.71183620    -0.77500
C3          C  0.61762993  0.02767751  0.69897838     0.83300
N4          N  0.65223557  0.04718671  0.68911572    -0.77400
C5          C  0.68631255  0.08819335  0.69219101     0.83400
N6          N  0.68548170  0.10981438  0.70514437    -0.79200
C7          C  0.76235917  0.10390109  0.66001686     0.80800
N8          N  0.79464592  0.14572337  0.66275788    -0.77500
C9          C  0.79259635  0.16929508  0.67476719     0.83300
N10         N  0.75741006  0.15045498  0.68438823    -0.77400
C11         C  0.72426404  0.10866286  0.68171499     0.83400
N12         N  0.72693126  0.08543876  0.66955405    -0.79200
C13         C  0.50018379  0.76908566  0.82819477     0.80800
N14         N  0.50447787  0.80873188  0.83139101    -0.77500
C15         C  0.52208779  0.82965257  0.84485826     0.83300
N16         N  0.53641082  0.81075710  0.85533213    -0.77400
C17         C  0.53216532  0.77073367  0.85238235     0.83400
N18         N  0.51352623  0.74966499  0.83884973    -0.79200
C19         C  0.57927777  0.75123517  0.88794835     0.80800
N20         N  0.56788674  0.77166462  0.87701534    -0.77500
C21         C  0.54613370  0.74959273  0.86401748     0.83300
N22         N  0.53693766  0.70751956  0.86183160    -0.77400
C23         C  0.54815965  0.68690127  0.87268061     0.83400
N24         N  0.56912915  0.70889608  0.88571318    -0.79200
C25         C  0.79455394  0.40969852  0.50363280     0.80800
N26         N  0.79898372  0.44936039  0.50712483    -0.77500
C27         C  0.82456516  0.47356417  0.51907741     0.83300
N28         N  0.84603161  0.45777949  0.52766244    -0.77400
C29         C  0.84131720  0.41774515  0.52444727     0.83400
N30         N  0.81584503  0.39393904  0.51233977    -0.79200
C31         C  0.91780097  0.41234136  0.55263814     0.80800
N32         N  0.91194886  0.37198578  0.54940517    -0.77500
C33         C  0.88327672  0.34595771  0.53841384     0.83300
N34         N  0.86003115  0.36085444  0.53042705    -0.77400
C35         C  0.86528505  0.40120478  0.53355253     0.83400
N36         N  0.89412078  0.42685855  0.54469499    -0.79200
C37         C  0.43351675  0.44312893  0.99218004     0.80800
N38         N  0.39909109  0.42294424  0.00202776    -0.77500
C39         C  0.39640554  0.44470999  0.01458612     0.83300
N40         N  0.42881301  0.48650638  0.01746877    -0.77400
C41         C  0.46310244  0.50698231  0.00756119     0.83400
N42         N  0.46513386  0.48528362  0.99490993    -0.79200
C43         C  0.31957683  0.42342631  0.04696565     0.80800
N44         N  0.35599087  0.44323422  0.03792399    -0.77500
C45         C  0.35781122  0.42350936  0.02461707     0.83300
N46         N  0.32302408  0.38436764  0.02031059    -0.77400
C47         C  0.28635316  0.36517944  0.02912848     0.83400
N48         N  0.28491783  0.38478402  0.04239025    -0.79200
C49         C  0.98916826  0.74913375  0.38414024     0.80800
N50         N  0.02232157  0.76784903  0.37370271    -0.77500
C51         C  0.02201361  0.74491941  0.36093939     0.83300
N52         N  0.98805586  0.70344574  0.35854821    -0.77400
C53         C  0.95443639  0.68499980  0.36882803     0.83400
N54         N  0.95567210  0.70789279  0.38158431    -0.79200
C55         C  0.09722005  0.75908602  0.32860555     0.80800
N56         N  0.06145443  0.74096891  0.33801735    -0.77500
C57         C  0.05905316  0.76461667  0.35010515     0.83300
N58         N  0.09243296  0.80616152  0.35272847    -0.77400
C59         C  0.12784759  0.82460982  0.34327769     0.83400
N60         N  0.12979375  0.80087702  0.33129113    -0.79200
C61         C  0.12438480  0.07798827  0.17273392     0.80800
N62         N  0.15095246  0.06446595  0.17933269    -0.77500
C63         C  0.18012391  0.08928504  0.19061134     0.83300
N64         N  0.18310836  0.12787208  0.19501281    -0.77400
C65         C  0.15660278  0.14132697  0.18858125     0.83400
N66         N  0.12771244  0.11628031  0.17753423    -0.79200
C67         C  0.26730093  0.09031864  0.21516962     0.80800
N68         N  0.23972605  0.10224180  0.20852010    -0.77500
C69         C  0.20972448  0.07583519  0.19776210     0.83300
N70         N  0.20692639  0.03695400  0.19387468    -0.77400
C71         C  0.23415893  0.02456896  0.20053267     0.83400
N72         N  0.26415512  0.05157411  0.21105563    -0.79200
C73         C  0.04470145  0.68984207  0.83418307     0.80800
N74         N  0.00576609  0.65561860  0.83877676    -0.77500
C75         C  0.98526472  0.65784559  0.85167602     0.83300
N76         N  0.00409301  0.69519384  0.86019073    -0.77400
C77         C  0.04339690  0.72985059  0.85591983     0.83400
N78         N  0.06372031  0.72716479  0.84288877    -0.79200
C79         C  0.06175566  0.80489142  0.88857250     0.80800
N80         N  0.04255373  0.77018131  0.87877736    -0.77500
C81         C  0.06393990  0.76909049  0.86582700     0.83300
N82         N  0.10463288  0.80338891  0.86255946    -0.77400
C83         C  0.12412496  0.83838606  0.87233828     0.83400
N84         N  0.10239254  0.83856141  0.88527006    -0.79200
C85         C  0.69363765  0.62163159  0.65673274     0.80800
N86         N  0.65270973  0.61408888  0.65989248    -0.77500
C87         C  0.63254349  0.59558523  0.67341058     0.83300
N88         N  0.65388593  0.58437873  0.68396494    -0.77400
C89         C  0.69486419  0.59147927  0.68092395     0.83400
N90         N  0.71471252  0.61032328  0.66734938    -0.79200
C91         C  0.71815151  0.54912910  0.71663648     0.80800
N92         N  0.69725269  0.55994217  0.70580662    -0.77500
C93         C  0.71784727  0.57964405  0.69241539     0.83300
N94         N  0.75955039  0.58819195  0.68976788    -0.77400
C95         C  0.78078034  0.57778494  0.70065789     0.83400
N96         N  0.75979187  0.55828474  0.71396199    -0.79200
C97         C  0.37345623  0.35520205  0.50017563     0.80800
N98         N  0.33479278  0.32020052  0.50467340    -0.77500
C99         C  0.31066831  0.32409849  0.51614712     0.83300
N100        N  0.32555908  0.36336915  0.52333688    -0.77400
C101        C  0.36456960  0.39849571  0.51917981     0.83400
N102        N  0.38824742  0.39444577  0.50746927    -0.79200
C103        C  0.37694809  0.48239442  0.54807207     0.80800
N104        N  0.35900833  0.44453081  0.53965086    -0.77500
C105        C  0.38237441  0.43991476  0.52789599     0.83300
N106        N  0.42374841  0.47290481  0.52478672    -0.77400
C107        C  0.44198081  0.51018619  0.53334986     0.83400
N108        N  0.41831946  0.51459278  0.54480175    -0.79200
C109        C  0.38808755  0.99614399  0.99906577     0.80800
N110        N  0.40336482  0.97463381  0.00788273    -0.77500
C111        C  0.37862419  0.94831849  0.01972392     0.83300
N112        N  0.33802996  0.94272009  0.02243055    -0.77400
C113        C  0.32222394  0.96350014  0.01342243     0.83400
N114        N  0.34767421  0.99028575  0.00191346    -0.79200
C115        C  0.38672743  0.87611637  0.04943047     0.80800
N116        N  0.37160533  0.89901873  0.04123737    -0.77500
C117        C  0.39537726  0.92502354  0.02916973     0.83300
N118        N  0.43454697  0.92858126  0.02549086    -0.77400
C119        C  0.44975712  0.90578416  0.03353683     0.83400
N120        N  0.42570768  0.87963101  0.04542664    -0.79200
C121        C  0.04570192  0.19724211  0.38313098     0.80800
N122        N  0.08454047  0.20015778  0.37955712    -0.77500
C123        C  0.10641228  0.22007909  0.36642802     0.83300
N124        N  0.08910198  0.23782460  0.35661470    -0.77400
C125        C  0.04988261  0.23493580  0.35991825     0.83400
N126        N  0.02821251  0.21440490  0.37316925    -0.79200
C127        C  0.03410169  0.29563257  0.32727399     0.80800
N128        N  0.99257020  0.28651868  0.33032575    -0.77500
C129        C  0.96979411  0.26167346  0.34260125     0.83300
N130        N  0.98897629  0.24546898  0.35211858    -0.77400
C131        C  0.03039091  0.25357019  0.34929426     0.83400
N132        N  0.05304499  0.27873537  0.33682367    -0.79200
C133        C  0.72228427  0.14848482  0.21718222     0.80800
N134        N  0.70200606  0.11274653  0.20783099    -0.77500
C135        C  0.72373307  0.10856146  0.19552963     0.83300
N136        N  0.76605887  0.13996164  0.19275148    -0.77400
C137        C  0.78668343  0.17541506  0.20220896     0.83400
N138        N  0.76439514  0.17946369  0.21427500    -0.79200
C139        C  0.70380055  0.02961614  0.16391930     0.80800
N140        N  0.72316359  0.06628900  0.17288406    -0.77500
C141        C  0.70198223  0.06971547  0.18551610     0.83300
N142        N  0.66132434  0.03621104  0.18920979    -0.77400
C143        C  0.64227815  0.99931660  0.18041278     0.83400
N144        N  0.66357382  0.99641782  0.16786457    -0.79200
C145        C  0.50365794  0.70088225  0.32704655     0.80800
N146        N  0.51445889  0.66927784  0.32943378    -0.77500
C147        C  0.53950194  0.67125260  0.34165980     0.83300
N148        N  0.55340449  0.70516720  0.35179805    -0.77400
C149        C  0.54328018  0.73741497  0.34944557     0.83400
N150        N  0.51833471  0.73516129  0.33704772    -0.79200
C151        C  0.58774069  0.80436760  0.38492293     0.80800
N152        N  0.57501181  0.83465780  0.38280721    -0.77500
C153        C  0.55330834  0.83456784  0.36983504     0.83300
N154        N  0.54392741  0.80341151  0.35889232    -0.77400
C155        C  0.55597106  0.77249217  0.36093958     0.83400
N156        N  0.57825203  0.77326340  0.37392198    -0.79200
C157        C  0.27054430  0.15744323  0.71321979     0.80800
N158        N  0.24582308  0.11833196  0.70600457    -0.77500
C159        C  0.21848167  0.11451977  0.69421939     0.83300
N160        N  0.21564841  0.15019696  0.68965422    -0.77400
C161        C  0.24047194  0.18962002  0.69677989     0.83400
N162        N  0.26744926  0.19262861  0.70850929    -0.79200
C163        C  0.14410268  0.02795023  0.66679130     0.80800
N164        N  0.16693516  0.06746222  0.67406011    -0.77500
C165        C  0.19279370  0.07189290  0.68644777     0.83300
N166        N  0.19635925  0.03693577  0.69134733    -0.77400
C167        C  0.17360246  0.99744828  0.68417280     0.83400
N168        N  0.14785683  0.99350190  0.67193472    -0.79200
C169        C  0.43729890  0.97880121  0.49955241     0.80800
N170        N  0.46993029  0.97078023  0.50341934    -0.77500
C171        C  0.47051515  0.95289958  0.51719423     0.83300
N172        N  0.43723552  0.94218096  0.52731541    -0.77400
C173        C  0.40416939  0.95026293  0.52368697     0.83400
N174        N  0.40437084  0.96880972  0.50981230    -0.79200
C175        C  0.33388197  0.90443992  0.55816319     0.80800
N176        N  0.30141942  0.91326851  0.55492733    -0.77500
C177        C  0.30160546  0.93441750  0.54179074     0.83300
N178        N  0.33520775  0.94679472  0.53159142    -0.77400
C179        C  0.36822032  0.93823028  0.53471753     0.83400
N180        N  0.36722889  0.91685397  0.54795590    -0.79200
C181        C  0.65918238  0.54905515  0.21964271     0.80800
N182        N  0.62757627  0.55940004  0.21667913    -0.77500
C183        C  0.63023764  0.58465690  0.20441656     0.83300
N184        N  0.66548431  0.59996772  0.19490347    -0.77400
C185        C  0.69788630  0.59040735  0.19768408     0.83400
N186        N  0.69459245  0.56459675  0.21005112    -0.79200
C187        C  0.77293597  0.64937516  0.16498276     0.80800
N188        N  0.73778022  0.63275756  0.17466050    -0.77500
C189        C  0.73621704  0.60848002  0.18728258     0.83300
N190        N  0.77031335  0.60148838  0.19027738    -0.77400
C191        C  0.80586730  0.61886608  0.18079312     0.83400
N192        N  0.80647855  0.64227676  0.16826750    -0.79200
C193        C  0.84429346  0.38205178  0.99140284     0.80800
N194        N  0.85491866  0.35020386  0.99358831    -0.77500
C195        C  0.87742178  0.35001345  0.00629839     0.83300
N196        N  0.88981067  0.38244831  0.01695029    -0.77400
C197        C  0.88003386  0.41498665  0.01484826     0.83400
N198        N  0.85684041  0.41450267  0.00212476    -0.79200
C199        C  0.93520348  0.48644339  0.04864304     0.80800
N200        N  0.92413335  0.51788755  0.04663775    -0.77500
C201        C  0.89849978  0.51616201  0.03468015     0.83300
N202        N  0.88432853  0.48271636  0.02435208    -0.77400
C203        C  0.89488337  0.45064894  0.02624798     0.83400
N204        N  0.92021734  0.45242516  0.03848765    -0.79200
C205        C  0.10587268  0.31941316  0.83165108     0.80800
N206        N  0.13888414  0.31169184  0.83515462    -0.77500
C207        C  0.13898662  0.29118240  0.84837206     0.83300
N208        N  0.10467989  0.27726579  0.85828456    -0.77400
C209        C  0.07103141  0.28470970  0.85497804     0.83400
N210        N  0.07185639  0.30608645  0.84169087    -0.79200
C211        C  0.00013460  0.23607852  0.88932785     0.80800
N212        N  0.03341902  0.24871925  0.87902838    -0.77500
C213        C  0.03463335  0.27086568  0.86596521     0.83300
N214        N  0.00192831  0.27987056  0.86307414    -0.77400
C215        C  0.96852539  0.26767710  0.87330332     0.83400
N216        N  0.96795466  0.24587316  0.88640319    -0.79200
O217        O  0.54956053  0.19263043  0.81420550    -0.79500
O218        O  0.65517068  0.39209069  0.86670022    -0.81100
O219        O  0.61553072  0.34274911  0.81516420    -0.78100
O220        O  0.67753985  0.28620242  0.84399806    -0.76500
O221        O  0.65654061  0.24315788  0.86566523    -0.78300
O222        O  0.55088277  0.34341515  0.81502816    -0.79200
O223        O  0.67571419  0.37127792  0.84467594    -0.80500
O224        O  0.61518356  0.25676305  0.81401286    -0.80800
Eu225      Eu  0.61666447  0.29864558  0.83690537     2.39200
O226        O  0.61769272  0.29829856  0.86401147    -0.88300
O227        O  0.54372462  0.26256911  0.82816098    -0.91900
C228        C  0.58703717  0.21940576  0.80811466     1.02700
C229        C  0.68273038  0.39829229  0.85585036     1.02600
C230        C  0.58896001  0.35426151  0.80936197     1.02500
C231        C  0.68457588  0.26548157  0.85497986     1.00400
H232        H  0.59565152  0.36549003  0.84259673     0.30100
O233        O  0.58071420  0.33541194  0.84618344    -1.00700
H234        H  0.59635502  0.21111634  0.84179297     0.30100
O235        O  0.58124403  0.22562572  0.84578327    -1.03300
O236        O  0.53659817  0.33375900  0.89506740    -0.80500
O237        O  0.43557157  0.12892522  0.84490236    -0.80000
O238        O  0.52126142  0.37239466  0.84551861    -0.78500
O239        O  0.62662370  0.27011194  0.89505278    -0.81800
O240        O  0.56793376  0.15255687  0.86527417    -0.79700
O241        O  0.46251834  0.25244641  0.81546048    -0.78300
O242        O  0.41476843  0.24275691  0.86748018    -0.79800
O243        O  0.47430009  0.18025344  0.89520737    -0.81800
O244        O  0.43471423  0.28450497  0.84540746    -0.78500
O245        O  0.53895502  0.17971002  0.89479432    -0.81200
O246        O  0.56576031  0.39280516  0.86676740    -0.76900
O247        O  0.46324756  0.18760295  0.81517946    -0.76900
O248        O  0.52567154  0.13245895  0.84337863    -0.76600
O249        O  0.62661280  0.33517142  0.89529646    -0.80100
O250        O  0.47152842  0.26908618  0.89565196    -0.79500
O251        O  0.41368892  0.15125219  0.86623994    -0.77800
Eu252      Eu  0.58124760  0.33402978  0.87340105     2.39800
Eu253      Eu  0.50790166  0.18978934  0.83719076     2.39600
Eu254      Eu  0.50753504  0.29898057  0.83727803     2.38400
Eu255      Eu  0.58204444  0.22567578  0.87302378     2.39900
Eu256      Eu  0.47248271  0.22522247  0.87365549     2.39800
O257        O  0.50884556  0.18911238  0.86431831    -0.92300
O258        O  0.50867731  0.29789442  0.86443901    -0.91100
C259        C  0.49861031  0.30769003  0.90096911     1.02900
C260        C  0.40777199  0.12271048  0.85570494     1.01600
C261        C  0.54310967  0.39961242  0.85651411     1.01000
C262        C  0.63843383  0.30843315  0.90080291     1.03000
C263        C  0.54715725  0.12579025  0.85411102     1.02000
C264        C  0.45144699  0.21425453  0.80967558     1.00800
C265        C  0.40815128  0.26416773  0.85667222     1.00900
C266        C  0.50099253  0.16822599  0.90061650     1.03500
H267        H  0.44116993  0.21068271  0.84284698     0.30800
O268        O  0.47118989  0.22581073  0.84642287    -1.04400
H269        H  0.54576072  0.26135977  0.89378889     0.32900
O270        O  0.54541073  0.26140104  0.88262998    -1.07000
O271        O  0.80226587  0.85485635  0.98334327    -0.79500
O272        O  0.90407883  0.06274731  0.03270326    -0.81100
O273        O  0.77099671  0.94827691  0.01177176    -0.78100
O274        O  0.88976512  0.00893416  0.98308172    -0.76500
O275        O  0.95587005  0.01136550  0.98325329    -0.78300
O276        O  0.75014522  0.90507523  0.03340020    -0.79200
O277        O  0.86064792  0.03878575  0.01115875    -0.80500
O278        O  0.80023713  0.91885955  0.98308684    -0.80800
Eu279      Eu  0.84523992  0.96414897  0.00484747     2.39200
O280        O  0.91746548  0.00163118  0.01429981    -0.88300
O281        O  0.80999083  0.89140933  0.01395074    -0.91900
C282        C  0.78901398  0.88034584  0.97768811     1.02700
C283        C  0.88299137  0.06823185  0.02145113     1.02600
C284        C  0.74330394  0.92629971  0.02256337     1.02500
C285        C  0.92840943  0.02198065  0.97754522     1.00400
H286        H  0.82881933  0.97932741  0.03568375     0.30100
O287        O  0.84438472  0.96483088  0.03211933    -1.00700
H288        H  0.88368763  0.92900508  0.98461071     0.30100
O289        O  0.88336463  0.92925039  0.99577184    -1.03300
O290        O  0.95830661  0.00230903  0.06463122    -0.80500
O291        O  0.86370872  0.79875686  0.01281709    -0.80000
O292        O  0.80965596  0.93413055  0.06346661    -0.78500
O293        O  0.01263565  0.04120949  0.01252153    -0.81800
O294        O  0.95898453  0.92114279  0.98436110    -0.79700
O295        O  0.75184029  0.81715174  0.03349620    -0.78300
O296        O  0.87523422  0.85082637  0.06421560    -0.79800
O297        O  0.99464469  0.91072012  0.03548420    -0.81800
O298        O  0.80881541  0.84781009  0.06356133    -0.78500
O299        O  0.01511914  0.95410808  0.01387054    -0.81200
O300        O  0.87196711  0.00168056  0.06352006    -0.76900
O301        O  0.77538212  0.79652968  0.01220435    -0.76900
O302        O  0.89470070  0.85552790  0.98425555    -0.76600
O303        O  0.99084202  0.06213550  0.03426291    -0.80100
O304        O  0.95687733  0.93635410  0.06532509    -0.79500
O305        O  0.90641402  0.82169659  0.03454168    -0.77800
Eu306      Eu  0.91714144  0.00305632  0.04148549     2.39800
Eu307      Eu  0.84827514  0.85676269  0.00520902     2.39600
Eu308      Eu  0.80946521  0.89143555  0.04108968     2.38400
Eu309      Eu  0.95559359  0.96677265  0.00545278     2.39900
Eu310      Eu  0.91970254  0.89463199  0.04199468     2.39800
O311        O  0.92040247  0.89439318  0.01479787    -0.92300
O312        O  0.88178290  0.92995621  0.05028810    -0.91100
C313        C  0.96696865  0.97416143  0.07105148     1.02900
C314        C  0.88548468  0.79342331  0.02378237     1.01600
C315        C  0.83493107  0.97242432  0.06935582     1.01000
C316        C  0.01853226  0.06886768  0.02334788     1.03000
C317        C  0.93343483  0.88206821  0.97898789     1.02000
C318        C  0.74664066  0.78949811  0.02272920     1.00800
C319        C  0.83657815  0.83834247  0.06971297     1.00900
C320        C  0.02239556  0.93329601  0.02475217     1.03500
H321        H  0.83288206  0.82639700  0.03624728     0.30800
O322        O  0.84741276  0.85627547  0.03246617    -1.04400
H323        H  0.98492494  0.98311130  0.03676549     0.32900
O324        O  0.95529197  0.96768382  0.03281303    -1.07000
O325        O  0.62450458  0.32329437  0.39748438    -0.79500
O326        O  0.52377392  0.12043497  0.34573261    -0.81100
O327        O  0.54167313  0.17218252  0.39688391    -0.78100
O328        O  0.65467253  0.22980901  0.36678960    -0.76500
O329        O  0.67514614  0.27509066  0.34571278    -0.78300
O330        O  0.47529243  0.16913648  0.39734839    -0.79200
O331        O  0.56777085  0.14327992  0.36712507    -0.80500
O332        O  0.62687912  0.25942437  0.39683694    -0.80800
Eu333      Eu  0.58242368  0.21652441  0.37469185     2.39200
O334        O  0.58145845  0.21751479  0.34757146    -0.88300
O335        O  0.54515098  0.25098287  0.38468115    -0.91900
C336        C  0.63716827  0.29703404  0.40280954     1.02700
C337        C  0.54598317  0.11483328  0.35652184     1.02600
C338        C  0.50359092  0.15934230  0.40278632     1.02500
C339        C  0.68181842  0.25223357  0.35595808     1.00400
H340        H  0.49523607  0.14844561  0.36949811     0.30100
O341        O  0.50954532  0.17843732  0.36583514    -1.00700
H342        H  0.64715366  0.30458512  0.36983140     0.30100
O343        O  0.61720828  0.28972934  0.36618444    -1.03300
O344        O  0.46468296  0.18228491  0.31667624    -0.80500
O345        O  0.56640986  0.38449392  0.36867347    -0.80000
O346        O  0.41348211  0.13982499  0.36817541    -0.78500
O347        O  0.61813294  0.24641494  0.31759246    -0.81800
O348        O  0.67531455  0.36372580  0.34678574    -0.79700
O349        O  0.47125731  0.25570427  0.39799610    -0.78300
O350        O  0.43116507  0.26927726  0.34717037    -0.79800
O351        O  0.54848421  0.33239024  0.31762804    -0.81800
O352        O  0.41239069  0.22581455  0.36872324    -0.78500
O353        O  0.61436796  0.33446566  0.31690908    -0.81200
O354        O  0.43532608  0.11980697  0.34621720    -0.76900
O355        O  0.53481849  0.32195524  0.39843753    -0.76900
O356        O  0.65368186  0.38258733  0.36904156    -0.76600
O357        O  0.55458892  0.18007630  0.31692139    -0.80100
O358        O  0.46300886  0.24652666  0.31712241    -0.79500
O359        O  0.52173621  0.36135939  0.34742907    -0.77800
Eu360      Eu  0.50859796  0.17954572  0.33858700     2.39800
Eu361      Eu  0.57945665  0.32417401  0.37595139     2.39600
Eu362      Eu  0.47256020  0.21327920  0.37564923     2.38400
Eu363      Eu  0.61627184  0.29077414  0.33902222     2.39900
Eu364      Eu  0.50601289  0.28759368  0.33977377     2.39800
O365        O  0.57887358  0.32553930  0.34871523    -0.92300
O366        O  0.47140355  0.21429874  0.34843986    -0.91100
C367        C  0.45272302  0.20895472  0.31110473     1.02900
C368        C  0.54423147  0.39011420  0.35789328     1.01600
C369        C  0.40754303  0.11258973  0.35717143     1.01000
C370        C  0.59323033  0.20793405  0.31179717     1.03000
C371        C  0.68173312  0.38989917  0.35819711     1.02000
C372        C  0.49678899  0.29383682  0.40398716     1.00800
C373        C  0.40432993  0.24661063  0.35810500     1.00900
C374        C  0.58629400  0.34463084  0.31148127     1.03500
H375        H  0.49104812  0.30088954  0.37090427     0.30800
O376        O  0.50653139  0.28666916  0.36699332    -1.04400
H377        H  0.54356291  0.25347903  0.31886118     0.32900
O378        O  0.54352549  0.25296641  0.33002073    -1.07000
O379        O  0.34152941  0.70586209  0.67806882    -0.79500
O380        O  0.14065238  0.60006986  0.73031506    -0.81100
O381        O  0.23264339  0.72712573  0.70139563    -0.78100
O382        O  0.29245608  0.66729045  0.72974085    -0.76500
O383        O  0.29372917  0.60284220  0.72955875    -0.78300
O384        O  0.19033153  0.70668889  0.67950980    -0.79200
O385        O  0.20340647  0.66739845  0.73019573    -0.80500
O386        O  0.31852371  0.72839528  0.69910842    -0.80800
Eu387      Eu  0.24731537  0.66778715  0.70803783     2.39200
O388        O  0.21209462  0.59468784  0.71690174    -0.88300
O389        O  0.24624241  0.66742625  0.68097016    -0.91900
C390        C  0.34620978  0.73458177  0.68824091     1.02700
C391        C  0.16629269  0.63852664  0.73603009     1.02600
C392        C  0.21185542  0.73412892  0.69048177     1.02500
C393        C  0.30467800  0.64087970  0.73531368     1.00400
H394        H  0.15896705  0.64501603  0.70306096     0.30100
O395        O  0.17422533  0.63060123  0.69911949    -1.00700
H396        H  0.31503791  0.64818681  0.70231507     0.30100
O397        O  0.28502800  0.63284776  0.69872987    -1.03300
O398        O  0.08046484  0.48335847  0.70022426    -0.80500
O399        O  0.28291060  0.58938356  0.64905445    -0.80000
O400        O  0.09954586  0.61495129  0.67976626    -0.78500
O401        O  0.20595442  0.51556015  0.72958303    -0.81800
O402        O  0.32258380  0.57409449  0.70000166    -0.79700
O403        O  0.22088475  0.67968757  0.65092950    -0.78300
O404        O  0.12916990  0.52396332  0.65000338    -0.79800
O405        O  0.19476438  0.46709695  0.67705772    -0.81800
O406        O  0.12899411  0.58899956  0.64954670    -0.78500
O407        O  0.23641631  0.48754920  0.69910131    -0.81200
O408        O  0.07963425  0.57023236  0.70098681    -0.76900
O409        O  0.28663329  0.68104350  0.65094701    -0.76900
O410        O  0.34269821  0.61790155  0.67854653    -0.76600
O411        O  0.13952830  0.51255474  0.72978282    -0.80100
O412        O  0.10290752  0.46314920  0.67851718    -0.79500
O413        O  0.21750257  0.52488230  0.64815484    -0.77800
Eu414      Eu  0.13945665  0.55706949  0.70781877     2.39800
Eu415      Eu  0.28335583  0.63219725  0.67155907     2.39600
Eu416      Eu  0.17377138  0.63207228  0.67188484     2.38400
Eu417      Eu  0.24922722  0.55959551  0.70743784     2.39900
Eu418      Eu  0.17564715  0.52366938  0.67109338     2.39800
O419        O  0.24827756  0.55949266  0.68025304    -0.92300
O420        O  0.13872282  0.55881596  0.68067088    -0.91100
C421        C  0.07465001  0.45599756  0.68926660     1.02900
C422        C  0.25596348  0.55207203  0.64280787     1.01600
C423        C  0.07215949  0.59185641  0.69052543     1.01000
C424        C  0.16780690  0.50312825  0.73545973     1.03000
C425        C  0.34977752  0.59616726  0.68910166     1.02000
C426        C  0.25991826  0.69297757  0.64568732     1.00800
C427        C  0.11707534  0.55018176  0.64423527     1.00900
C428        C  0.21662272  0.46095010  0.68779130     1.03500
H429        H  0.21080151  0.59750564  0.65106644     0.30800
O430        O  0.21082175  0.59674008  0.66222394    -1.04400
H431        H  0.16203602  0.49173233  0.70189714     0.32900
O432        O  0.17641150  0.52182255  0.69833087    -1.07000
O433        O  0.22040528  0.51773359  0.14917827    -0.79500
O434        O  0.32076721  0.72181162  0.20055903    -0.81100
O435        O  0.28381186  0.67354791  0.14949450    -0.78100
O436        O  0.34515703  0.61489175  0.17742480    -0.76500
O437        O  0.32361252  0.56961674  0.19855918    -0.78300
O438        O  0.21908309  0.67395715  0.14956355    -0.79200
O439        O  0.34175887  0.70040998  0.17876037    -0.80500
O440        O  0.28476396  0.58323767  0.14853309    -0.80800
Eu441      Eu  0.28427024  0.62698676  0.17079422     2.39200
O442        O  0.28488615  0.62660368  0.19804536    -0.88300
O443        O  0.21172006  0.59076105  0.16165443    -0.91900
C444        C  0.25800303  0.54453162  0.14316343     1.02700
C445        C  0.34815144  0.72825911  0.18959415     1.02600
C446        C  0.25769151  0.68629319  0.14408189     1.02500
C447        C  0.35160196  0.59255899  0.18790704     1.00400
H448        H  0.26284455  0.69317461  0.17701600     0.30100
O449        O  0.24824275  0.66306785  0.18056286    -1.00700
H450        H  0.26408179  0.53882809  0.17604225     0.30100
O451        O  0.24930950  0.55387101  0.17986056    -1.03300
O452        O  0.20194711  0.66044375  0.22946799    -0.80500
O453        O  0.10334710  0.45761999  0.17780110    -0.80000
O454        O  0.18900380  0.70019755  0.17906119    -0.78500
O455        O  0.29598885  0.59984571  0.22863976    -0.81800
O456        O  0.23168118  0.47826933  0.20114160    -0.79700
O457        O  0.13100811  0.58252234  0.14977280    -0.78300
O458        O  0.08091311  0.56750149  0.20101625    -0.79800
O459        O  0.13920868  0.50307408  0.22791455    -0.81800
O460        O  0.10245804  0.61092688  0.17939499    -0.78500
O461        O  0.20625638  0.50723094  0.22894417    -0.81200
O462        O  0.23126357  0.71987112  0.20091095    -0.76900
O463        O  0.13106847  0.51744569  0.14914355    -0.76900
O464        O  0.18751060  0.45757059  0.17979763    -0.76600
O465        O  0.29399210  0.66389916  0.22954477    -0.80100
O466        O  0.13842473  0.59405423  0.22986274    -0.79500
O467        O  0.08220153  0.47940312  0.19944657    -0.77800
Eu468      Eu  0.24795072  0.66187511  0.20779039     2.39800
Eu469      Eu  0.17635584  0.51793533  0.17095683     2.39600
Eu470      Eu  0.17585973  0.62708926  0.17144324     2.38400
Eu471      Eu  0.25019572  0.55392751  0.20713946     2.39900
Eu472      Eu  0.14023817  0.55247863  0.20747223     2.39800
O473        O  0.17767160  0.51801990  0.19801446    -0.92300
O474        O  0.17553782  0.62562065  0.19863962    -0.91100
C475        C  0.16419783  0.63281656  0.23527364     1.02900
C476        C  0.07576637  0.45147722  0.18865419     1.01600
C477        C  0.20987530  0.72698236  0.19022453     1.01000
C478        C  0.30697849  0.63768731  0.23463437     1.03000
C479        C  0.20759032  0.44986584  0.19082613     1.02000
C480        C  0.11903649  0.54434942  0.14395460     1.00800
C481        C  0.07472481  0.58923711  0.19021176     1.00900
C482        C  0.16649443  0.49240883  0.23370621     1.03500
H483        H  0.10984870  0.53881966  0.17664992     0.30800
O484        O  0.13979108  0.55384780  0.18030172    -1.04400
H485        H  0.21288494  0.58839077  0.22804114     0.32900
O486        O  0.21285999  0.58891197  0.21687682    -1.07000
O487        O  0.86391686  0.99166924  0.56349934    -0.79500
O488        O  0.76508287  0.78737470  0.51231984    -0.81100
O489        O  0.74214036  0.89571384  0.53638806    -0.78100
O490        O  0.80364611  0.83226300  0.56213524    -0.76500
O491        O  0.87093370  0.83686329  0.56281921    -0.78300
O492        O  0.76191530  0.93796712  0.51448220    -0.79200
O493        O  0.74353353  0.80851738  0.53405784    -0.80500
O494        O  0.80123486  0.92436695  0.56475116    -0.80800
Eu495      Eu  0.80218426  0.88160745  0.54230654     2.39200
O496        O  0.83945126  0.84727499  0.53246255    -0.88300
O497        O  0.83713419  0.95460320  0.53340691    -0.91900
C498        C  0.82659539  0.96402909  0.56956962     1.02700
C499        C  0.73720181  0.78097122  0.52308785     1.02600
C500        C  0.73493397  0.91667329  0.52557921     1.02500
C501        C  0.83119726  0.82133707  0.56744770     1.00400
H502        H  0.77097042  0.86724241  0.51144220     0.30100
O503        O  0.80092790  0.88235402  0.51508127    -1.00700
H504        H  0.87545050  0.91822846  0.56250307     0.30100
O505        O  0.87510918  0.91864888  0.55133950    -1.03300
O506        O  0.88269458  0.84789616  0.48339452    -0.80500
O507        O  0.98411311  0.05019908  0.53506267    -0.80000
O508        O  0.79252649  0.91118788  0.48432408    -0.78500
O509        O  0.89449254  0.80837826  0.53469366    -0.81800
O510        O  0.95785610  0.92851566  0.56292973    -0.79700
O511        O  0.84839678  0.02793996  0.51398768    -0.78300
O512        O  0.94225142  0.99806603  0.48321710    -0.79800
O513        O  0.00789502  0.94598729  0.51262326    -0.81800
O514        O  0.87808390  0.99978006  0.48383881    -0.78500
O515        O  0.98601424  0.90090475  0.53376723    -0.81200
O516        O  0.79401884  0.84698029  0.48333507    -0.76900
O517        O  0.89537972  0.05054433  0.53465945    -0.76900
O518        O  0.95554177  0.99241394  0.56379200    -0.76600
O519        O  0.85017606  0.78748074  0.51340105    -0.80100
O520        O  0.94769824  0.91267749  0.48320043    -0.79500
O521        O  0.00416099  0.02913971  0.51299277    -0.77800
Eu522      Eu  0.83818347  0.84737127  0.50536891     2.39800
Eu523      Eu  0.91002359  0.99158039  0.54209556     2.39600
Eu524      Eu  0.83607622  0.95537923  0.50628165     2.38400
Eu525      Eu  0.91218037  0.88368382  0.54129170     2.39900
Eu526      Eu  0.94587468  0.95607719  0.50526406     2.39800
O527        O  0.94669391  0.95623063  0.53238445    -0.92300
O528        O  0.87296637  0.92013799  0.49649564    -0.91100
C529        C  0.92077898  0.87436153  0.47759539     1.02900
C530        C  0.01152432  0.05646046  0.52410724     1.01600
C531        C  0.78191873  0.87377164  0.47813182     1.01000
C532        C  0.87084857  0.78011869  0.52425859     1.03000
C533        C  0.96867906  0.96632731  0.56888003     1.02000
C534        C  0.87197329  0.05622804  0.52440293     1.00800
C535        C  0.91540680  0.00967958  0.47772272     1.00900
C536        C  0.01442314  0.92436607  0.52339081     1.03500
H537        H  0.92396977  0.02211920  0.51116195     0.30800
O538        O  0.90939759  0.99215188  0.51486163    -1.04400
H539        H  0.92640919  0.86814762  0.51031463     0.32900
O540        O  0.91137273  0.88297085  0.51409349    -1.07000
C541        C  0.99754828  0.10561536  0.94651861    -0.27600
C542        C  0.96657650  0.11475648  0.93976964     0.06000
C543        C  0.92261171  0.09035227  0.94459880     0.25600
C544        C  0.91057569  0.05966685  0.95653287    -0.12100
C545        C  0.94180314  0.05190595  0.96389136    -0.26000
C546        C  0.98543407  0.07450758  0.95843893     0.36400
C547        C  0.97980424  0.14939979  0.92768866     0.06000
F548        F  0.89098466  0.09580421  0.93767262    -0.19800
H549        H  0.87652766  0.04221418  0.96009403     0.15800
F550        F  0.01675507  0.06764878  0.96485027    -0.23500
H551        H  0.03148029  0.12345358  0.94283476     0.17600
C552        C  0.96556760  0.18041308  0.92842115     0.25600
C553        C  0.97341945  0.20932109  0.91612042    -0.12100
C554        C  0.99684968  0.20901416  0.90303489    -0.26100
C555        C  0.01431597  0.18052920  0.90288157     0.36500
C556        C  0.00546428  0.15079383  0.91503927    -0.27700
F557        F  0.94391244  0.18271535  0.94103979    -0.19900
H558        H  0.96072705  0.23175327  0.91677195     0.15800
F559        F  0.03793009  0.17961507  0.89064173    -0.23600
H560        H  0.01734247  0.12771355  0.91428820     0.17700
C561        C  0.80633657  0.30365948  0.84998819    -0.27600
C562        C  0.81056799  0.27312989  0.85929045     0.06000
C563        C  0.77286683  0.23888304  0.86625266     0.25600
C564        C  0.73218443  0.23621941  0.86446355    -0.12100
C565        C  0.72783875  0.26749184  0.85563406    -0.26000
C566        C  0.76540210  0.30106281  0.84818560     0.36400
C567        C  0.85415603  0.27771830  0.86256026     0.06000
F568        F  0.77543852  0.20791221  0.87488803    -0.19800
H569        H  0.70399646  0.20965555  0.87016600     0.15800
F570        F  0.76311577  0.33250531  0.83974925    -0.23500
H571        H  0.83500361  0.33041894  0.84457480     0.17600
C572        C  0.88202789  0.27912310  0.85065960     0.25600
C573        C  0.92033657  0.27788363  0.85423305    -0.12100
C574        C  0.93130155  0.27495052  0.86969281    -0.26100
C575        C  0.90461112  0.27619610  0.88155314     0.36500
C576        C  0.86668351  0.27774423  0.87797768    -0.27700
F577        F  0.87101676  0.27911116  0.83561445    -0.19900
H578        H  0.94032857  0.27716376  0.84485658     0.15800
F579        F  0.91475260  0.27537818  0.89664611    -0.23600
H580        H  0.84626099  0.27779493  0.88732882     0.17700
C581        C  0.09434468  0.39312878  0.80185943    -0.27600
C582        C  0.12433065  0.39594840  0.79055842     0.06000
C583        C  0.14573775  0.37159019  0.79248972     0.25600
C584        C  0.13815647  0.34583292  0.80561891    -0.12100
C585        C  0.10916642  0.34372023  0.81721875    -0.26000
C586        C  0.08673483  0.36722018  0.81512618     0.36400
C587        C  0.13447578  0.42496271  0.77691575     0.06000
F588        F  0.17401302  0.37259034  0.78161329    -0.19800
H589        H  0.15558858  0.32779793  0.80674975     0.15800
F590        F  0.05895742  0.36667670  0.82610347    -0.23500
H591        H  0.07773836  0.41193146  0.80059417     0.17600
C592        C  0.10128037  0.42075488  0.76681379     0.25600
C593        C  0.11207641  0.44662015  0.75341994    -0.12100
C594        C  0.15616147  0.47663499  0.74982496    -0.26100
C595        C  0.18920030  0.48112475  0.76012055     0.36500
C596        C  0.17832010  0.45572974  0.77353229    -0.27700
F597        F  0.05871078  0.39038464  0.76956937    -0.19900
H598        H  0.08605540  0.44236531  0.74565656     0.15800
F599        F  0.23209605  0.51046748  0.75735781    -0.23600
H600        H  0.20433107  0.45980995  0.78127471     0.17700
C601        C  0.31033826  0.27223650  0.87059718    -0.27600
C602        C  0.28791290  0.26700406  0.85664370     0.06000
C603        C  0.30466695  0.25995007  0.84289840     0.25600
C604        C  0.34380600  0.25905009  0.84305803    -0.12100
C605        C  0.36664137  0.26473705  0.85693650    -0.26000
C606        C  0.34958434  0.27113035  0.87077954     0.36400
C607        C  0.25002610  0.27399654  0.85594447     0.06000
F608        F  0.28331435  0.25448755  0.82927928    -0.19800
H609        H  0.35629315  0.25378650  0.83231168     0.15800
F610        F  0.37191339  0.27847612  0.88427908    -0.23500
H611        H  0.29825623  0.27871570  0.88120759     0.17600
C612        C  0.20972133  0.24496633  0.86295844     0.25600
C613        C  0.17354756  0.25112902  0.86093403    -0.12100
C614        C  0.17741014  0.28616481  0.85184775    -0.26100
C615        C  0.21851029  0.31596443  0.84538701     0.36500
C616        C  0.25420946  0.30974853  0.84742623    -0.27700
F617        F  0.20495820  0.20984418  0.87115524    -0.19900
H618        H  0.14230383  0.22779865  0.86600593     0.15800
F619        F  0.22445576  0.35133749  0.83705000    -0.23600
H620        H  0.28529741  0.33269823  0.84214348     0.17700
C621        C  0.02267766  0.53747692  0.07930989    -0.27600
C622        C  0.01259620  0.50138776  0.08888078     0.06000
C623        C  0.97857481  0.45943304  0.08459532     0.25600
C624        C  0.95458616  0.45405780  0.07101645    -0.12100
C625        C  0.96384722  0.49054715  0.06174671    -0.26000
C626        C  0.99857386  0.53226516  0.06590500     0.36400
C627        C  0.03678883  0.50887105  0.10358156     0.06000
F628        F  0.96710738  0.42422898  0.09392554    -0.19800
H629        H  0.92753264  0.42183275  0.06812176     0.15800
F630        F  0.00910012  0.56814848  0.05703400    -0.23500
H631        H  0.04902358  0.56997399  0.08236036     0.17600
C632        C  0.05996218  0.48689012  0.10701435     0.25600
C633        C  0.08606258  0.49785231  0.12032136    -0.12100
C634        C  0.08930882  0.53078660  0.13040206    -0.26100
C635        C  0.06440236  0.55127838  0.12721893     0.36500
C636        C  0.03876211  0.54055297  0.11390242    -0.27700
F637        F  0.05889355  0.45628933  0.09717739    -0.19900
H638        H  0.10466584  0.48140909  0.12250189     0.15800
F639        F  0.06456370  0.58163693  0.13696759    -0.23600
H640        H  0.02056215  0.55734092  0.11154807     0.17700
C641        C  0.88584954  0.61457405  0.04317711    -0.27600
C642        C  0.88107799  0.62739296  0.02827586     0.06000
C643        C  0.87793034  0.60098807  0.01557511     0.25600
C644        C  0.88111205  0.56322212  0.01781149    -0.12100
C645        C  0.88854898  0.55196779  0.03264630    -0.26000
C646        C  0.88994580  0.57754641  0.04538569     0.36400
C647        C  0.88287959  0.67003706  0.02624176     0.06000
F648        F  0.87477685  0.61315873  0.00094773    -0.19800
H649        H  0.88020323  0.54419213  0.00783092     0.15800
F650        F  0.89613964  0.56741721  0.05998360    -0.23500
H651        H  0.88765944  0.63409700  0.05313702     0.17600
C652        C  0.85146276  0.67397564  0.01741711     0.25600
C653        C  0.85318654  0.71451610  0.01633169    -0.12100
C654        C  0.88575076  0.75151644  0.02422863    -0.26100
C655        C  0.91743728  0.74748356  0.03290604     0.36500
C656        C  0.91603983  0.70722487  0.03377740    -0.27700
F657        F  0.81803999  0.63837940  0.01043165    -0.19900
H658        H  0.82813483  0.71655986  0.00968989     0.15800
F659        F  0.94988814  0.78230276  0.04056557    -0.23600
H660        H  0.94090045  0.70499823  0.04048411     0.17700
C661        C  0.89240580  0.25219231  0.99871880    -0.27600
C662        C  0.88929254  0.23548395  0.01369362     0.06000
C663        C  0.88599699  0.25873767  0.02634199     0.25600
C664        C  0.88419546  0.29726211  0.02394334    -0.12100
C665        C  0.88539233  0.31295891  0.00889723    -0.26000
C666        C  0.89066041  0.29067296  0.99630795     0.36400
C667        C  0.88758747  0.19284104  0.01594197     0.06000
F668        F  0.88219589  0.24292267  0.04092298    -0.19800
H669        H  0.87988969  0.31370901  0.03380511     0.15800
F670        F  0.89395008  0.30599840  0.98166544    -0.23500
H671        H  0.89564202  0.23501885  0.98886374     0.17600
C672        C  0.85377826  0.15445541  0.00920095     0.25600
C673        C  0.85235393  0.11422236  0.01119626    -0.12100
C674        C  0.88451297  0.11128896  0.02000356    -0.26100
C675        C  0.91829559  0.14995486  0.02683452     0.36500
C676        C  0.91962454  0.19024446  0.02481510    -0.27700
F677        F  0.82161487  0.15577544  0.00092757    -0.19900
H678        H  0.82577070  0.08519707  0.00587767     0.15800
F679        F  0.95075629  0.14924798  0.03509919    -0.23600
H680        H  0.94606946  0.21964141  0.03000680     0.17700
C681        C  0.72002780  0.37931736  0.93208070    -0.27600
C682        C  0.72737803  0.34832793  0.93975756     0.06000
C683        C  0.70359644  0.30406293  0.93513079     0.25600
C684        C  0.67435069  0.29142626  0.92270364    -0.12100
C685        C  0.66787708  0.32251106  0.91458520    -0.26000
C686        C  0.69071229  0.36673934  0.91959158     0.36400
C687        C  0.76038731  0.36200776  0.95235674     0.06000
F688        F  0.70845311  0.27286832  0.94272314    -0.19800
H689        H  0.65687373  0.25708628  0.91940055     0.15800
F690        F  0.68588330  0.39819921  0.91219498    -0.23500
H691        H  0.73791307  0.41354972  0.93551230     0.17600
C692        C  0.79406977  0.35160587  0.95153694     0.25600
C693        C  0.82221806  0.36000116  0.96406826    -0.12100
C694        C  0.81793823  0.37953256  0.97762822    -0.26100
C695        C  0.78598712  0.39253974  0.97811196     0.36500
C696        C  0.75742328  0.38372736  0.96554812    -0.27700
F697        F  0.79945462  0.33282928  0.93863820    -0.19900
H698        H  0.84704250  0.35042227  0.96326237     0.15800
F699        F  0.78054782  0.41123879  0.99101517    -0.23600
H700        H  0.73184965  0.39226235  0.96635909     0.17700
C701        C  0.92107552  0.63676124  0.17935437    -0.27600
C702        C  0.91660468  0.59999504  0.18731895     0.06000
C703        C  0.87589218  0.57027481  0.19396171     0.25600
C704        C  0.83993596  0.57690491  0.19221561    -0.12100
C705        C  0.84418069  0.61310486  0.18376919    -0.26000
C706        C  0.88547595  0.64331376  0.17752273     0.36400
C707        C  0.95476910  0.59316125  0.18820914     0.06000
F708        F  0.87051434  0.53409397  0.20159056    -0.19800
H709        H  0.80854931  0.55310488  0.19706928     0.15800
F710        F  0.89182558  0.67955376  0.16966650    -0.23500
H711        H  0.95241163  0.66052447  0.17443765     0.17600
C712        C  0.97745898  0.59463319  0.17466220     0.25600
C713        C  0.01594952  0.59265511  0.17550364    -0.12100
C714        C  0.03266045  0.58902291  0.18982588    -0.26100
C715        C  0.00943861  0.58640997  0.20340732     0.36500
C716        C  0.97071385  0.58846448  0.20255767    -0.27700
F717        F  0.96251433  0.59829078  0.16057229    -0.19900
H718        H  0.03286936  0.59414882  0.16487537     0.15800
F719        F  0.02518291  0.58406229  0.21749801    -0.23600
H720        H  0.95401704  0.58796804  0.21312817     0.17700
C721        C  0.80891298  0.70304011  0.12562461    -0.27600
C722        C  0.79024258  0.73011031  0.12494244     0.06000
C723        C  0.76292550  0.72846044  0.13712775     0.25600
C724        C  0.75577333  0.70099417  0.14998531    -0.12100
C725        C  0.77597419  0.67507714  0.15086950    -0.26000
C726        C  0.80205869  0.67596930  0.13834786     0.36400
C727        C  0.80115357  0.76052604  0.11158271     0.06000
F728        F  0.74487236  0.75477240  0.13691630    -0.19800
H729        H  0.73581058  0.70119765  0.15946550     0.15800
F730        F  0.82127067  0.65067845  0.13833900    -0.23500
H731        H  0.82943115  0.70323496  0.11626131     0.17600
C732        C  0.84528325  0.79020730  0.10798732     0.25600
C733        C  0.85631307  0.81531577  0.09445451    -0.12100
C734        C  0.82366454  0.81175475  0.08419197    -0.26100
C735        C  0.77929057  0.78274020  0.08798483     0.36500
C736        C  0.76827465  0.75743024  0.10156885    -0.27700
F737        F  0.87785846  0.79472995  0.11758418    -0.19900
H738        H  0.89063694  0.83766890  0.09200864     0.15800
F739        F  0.74661760  0.77739442  0.07828624    -0.23600
H740        H  0.73413061  0.73428904  0.10400603     0.17700
C741        C  0.64996879  0.41903770  0.27755891    -0.27600
C742        C  0.61868298  0.42803724  0.27102274     0.06000
C743        C  0.57595704  0.40684384  0.27721931     0.25600
C744        C  0.56585913  0.37974072  0.29021024    -0.12100
C745        C  0.59765561  0.37214163  0.29721311    -0.26000
C746        C  0.63967611  0.39125669  0.29042233     0.36400
C747        C  0.63113825  0.46028257  0.25808101     0.06000
F748        F  0.54362183  0.41177080  0.27061830    -0.19800
H749        H  0.53282902  0.36465680  0.29477383     0.15800
F750        F  0.67124574  0.38392120  0.29629797    -0.23500
H751        H  0.68293791  0.43446302  0.27292766     0.17600
C752        C  0.61933521  0.49313536  0.25841419     0.25600
C753        C  0.62993854  0.52244375  0.24608142    -0.12100
C754        C  0.65338731  0.52060555  0.23322129    -0.26100
C755        C  0.66719615  0.48925404  0.23318022     0.36500
C756        C  0.65586798  0.45923420  0.24545919    -0.27700
F757        F  0.59818868  0.49756659  0.27079575    -0.19900
H758        H  0.61957152  0.54675431  0.24658729     0.15800
F759        F  0.68984542  0.48625321  0.22101538    -0.23600
H760        H  0.66567548  0.43451239  0.24494836     0.17700
C761        C  0.52623653  0.59011583  0.20943220    -0.27600
C762        C  0.51887065  0.60029267  0.19444134     0.06000
C763        C  0.55135505  0.61083130  0.18311251     0.25600
C764        C  0.58866298  0.60759451  0.18655797    -0.12100
C765        C  0.59397240  0.59366575  0.20128088    -0.26000
C766        C  0.56277056  0.58616173  0.21281209     0.36400
C767        C  0.47587551  0.59679487  0.19091120     0.06000
F768        F  0.54607422  0.62193523  0.16855843    -0.19800
H769        H  0.61238142  0.61414255  0.17750302     0.15800
F770        F  0.56674845  0.57400836  0.22735665    -0.23500
H771        H  0.50265696  0.58370048  0.21853254     0.17600
C772        C  0.43699715  0.56008508  0.19623338     0.25600
C773        C  0.39685188  0.55864737  0.19483783    -0.12100
C774        C  0.39415195  0.59334476  0.18789306    -0.26100
C775        C  0.43259567  0.62896123  0.18166291     0.36500
C776        C  0.47313016  0.63065618  0.18324356    -0.27700
F777        F  0.43786435  0.52563152  0.20303324    -0.19900
H778        H  0.36776981  0.53036993  0.19939531     0.15800
F779        F  0.43152638  0.66322562  0.17479882    -0.23600
H780        H  0.50254268  0.65927413  0.17906682     0.17700
C781        C  0.29481720  0.84541653  0.59640637    -0.27600
C782        C  0.31623411  0.82089909  0.59689335     0.06000
C783        C  0.34647185  0.82658542  0.58528985     0.25600
C784        C  0.35366816  0.85533551  0.57297749    -0.12100
C785        C  0.33066316  0.87855230  0.57210711    -0.26000
C786        C  0.30194025  0.87408895  0.58421227     0.36400
C787        C  0.30349738  0.78692176  0.60887760     0.06000
F788        F  0.36704897  0.80257695  0.58541874    -0.19800
H789        H  0.37580676  0.85797245  0.56381799     0.15800
F790        F  0.27997382  0.89673979  0.58420727    -0.23500
H791        H  0.27164197  0.84150592  0.60536732     0.17600
C792        C  0.33364567  0.78887641  0.61993684     0.25600
C793        C  0.31955116  0.75758567  0.63178716    -0.12100
C794        C  0.27522253  0.72442507  0.63276341    -0.26100
C795        C  0.24546596  0.72223700  0.62148858     0.36500
C796        C  0.25958937  0.75326179  0.60966835    -0.27700
F797        F  0.37603685  0.82194079  0.61962565    -0.19900
H798        H  0.34292795  0.76001665  0.64045456     0.15800
F799        F  0.20281036  0.68981095  0.62179668    -0.23600
H800        H  0.23609759  0.75129221  0.60113299     0.17700
C801        C  0.21603105  0.95182240  0.52084344    -0.27600
C802        C  0.18485812  0.94139157  0.53260486     0.06000
C803        C  0.19430344  0.93277127  0.54755367     0.25600
C804        C  0.23313095  0.93252142  0.55046128    -0.12100
C805        C  0.26357568  0.94071423  0.53856963    -0.26000
C806        C  0.25512807  0.95156060  0.52375234     0.36400
C807        C  0.14139372  0.93660017  0.52916552     0.06000
F808        F  0.16564949  0.92396730  0.55935409    -0.19800
H809        H  0.23876582  0.92484867  0.56206922     0.15800
F810        F  0.28344904  0.95995164  0.51190027    -0.23500
H811        H  0.20929191  0.95841309  0.50922834     0.17600
C812        C  0.13729646  0.96974995  0.52150275     0.25600
C813        C  0.09574122  0.96499232  0.51908451    -0.12100
C814        C  0.05776706  0.92722494  0.52431914    -0.26100
C815        C  0.06199347  0.89344796  0.53145277     0.36500
C816        C  0.10333383  0.89819160  0.53380130    -0.27700
F817        F  0.17345079  0.00743247  0.51696045    -0.19900
H818        H  0.09339809  0.99155856  0.51363588     0.15800
F819        F  0.02615896  0.85568874  0.53616941    -0.23600
H820        H  0.10566266  0.87173317  0.53934843     0.17700
C821        C  0.51173536  0.10353411  0.43919142    -0.27600
C822        C  0.46732493  0.07555467  0.44277619     0.06000
C823        C  0.43499593  0.07550282  0.43322466     0.25600
C824        C  0.44702521  0.10317740  0.42034674    -0.12100
C825        C  0.49146039  0.13102000  0.41666985    -0.26000
C826        C  0.52384050  0.13082559  0.42624252     0.36400
C827        C  0.45534058  0.04695843  0.45657650     0.06000
F828        F  0.39180725  0.04783899  0.43610435    -0.19800
H829        H  0.42145740  0.10219571  0.41307647     0.15800
F830        F  0.56721117  0.15746003  0.42330957    -0.23500
H831        H  0.53718682  0.10454189  0.44654200     0.17600
C832        C  0.47465900  0.02088780  0.45914271     0.25600
C833        C  0.46682621  0.99743946  0.47286752    -0.12100
C834        C  0.43955703  0.99931621  0.48436732    -0.26100
C835        C  0.41814206  0.02340593  0.48143322     0.36500
C836        C  0.42626015  0.04721808  0.46764877    -0.27700
F837        F  0.50152934  0.01841320  0.44843465    -0.19900
H838        H  0.48302740  0.97839999  0.47460103     0.15800
F839        F  0.39118851  0.02580819  0.49210335    -0.23600
H840        H  0.41110118  0.06720986  0.46587521     0.17700
C841        C  0.58379479  0.96651600  0.51637906    -0.27600
C842        C  0.57793823  0.92964646  0.52465498     0.06000
C843        C  0.53717446  0.90197231  0.53170020     0.25600
C844        C  0.50232337  0.91034281  0.52981238    -0.12100
C845        C  0.50784285  0.94620469  0.52083679    -0.26000
C846        C  0.54930880  0.97473052  0.51441612     0.36400
C847        C  0.61466278  0.92045477  0.52517960     0.06000
F848        F  0.53051663  0.86593803  0.53975253    -0.19800
H849        H  0.47067993  0.88792537  0.53483490     0.15800
F850        F  0.55666603  0.01069021  0.50614181    -0.23500
H851        H  0.61524124  0.98878708  0.51117964     0.17600
C852        C  0.63458976  0.91874803  0.51132395     0.25600
C853        C  0.67321380  0.91682582  0.51161780    -0.12100
C854        C  0.69257875  0.91604730  0.52570933    -0.26100
C855        C  0.67160901  0.91572390  0.53963243     0.36500
C856        C  0.63291474  0.91799366  0.53932580    -0.27700
F857        F  0.61701853  0.91978320  0.49745291    -0.19900
H858        H  0.68824149  0.91627788  0.50076090     0.15800
F859        F  0.68971377  0.91569725  0.55349913    -0.23600
H860        H  0.61827805  0.91976076  0.55011083     0.17700
C861        C  0.15739550  0.88275989  0.68534778    -0.27600
C862        C  0.19732905  0.89033046  0.69154424     0.06000
C863        C  0.22754419  0.93239379  0.69710808     0.25600
C864        C  0.21878644  0.96705781  0.69550046    -0.12100
C865        C  0.17971342  0.95995970  0.68842071    -0.26000
C866        C  0.14830350  0.91694036  0.68396216     0.36400
C867        C  0.20693495  0.85394455  0.69151830     0.06000
F868        F  0.26623225  0.94036025  0.70336883    -0.19800
H869        H  0.24340336  0.99973980  0.69913441     0.15800
F870        F  0.10892661  0.90784390  0.67802840    -0.23500
H871        H  0.13336642  0.85021971  0.68136049     0.17600
C872        C  0.20811626  0.83367373  0.70534842     0.25600
C873        C  0.21097731  0.79530258  0.70494868    -0.12100
C874        C  0.21227961  0.77647606  0.69074805    -0.26100
C875        C  0.21298153  0.79799442  0.67693332     0.36500
C876        C  0.21017811  0.83631871  0.67735931    -0.27700
F877        F  0.20405981  0.84960707  0.71915514    -0.19900
H878        H  0.21043668  0.77932246  0.71573508     0.15800
F879        F  0.21645640  0.78206195  0.66304020    -0.23600
H880        H  0.20952109  0.85181626  0.66659857     0.17700
C881        C  0.06478389  0.97461478  0.63353671    -0.27600
C882        C  0.07498163  0.01073792  0.62400204     0.06000
C883        C  0.10609914  0.05314832  0.62901505     0.25600
C884        C  0.12747036  0.05895301  0.64323379    -0.12100
C885        C  0.11810400  0.02254853  0.65262553    -0.26000
C886        C  0.08583104  0.98027162  0.64770194     0.36400
C887        C  0.05178758  0.00331436  0.60908568     0.06000
F888        F  0.11688818  0.08866745  0.61992976    -0.19800
H889        H  0.15230840  0.09176109  0.64665512     0.15800
F890        F  0.07427651  0.94417756  0.65656181    -0.23500
H891        H  0.04014578  0.94180234  0.63000997     0.17600
C892        C  0.05166192  0.97330274  0.59832773     0.25600
C893        C  0.02501505  0.96192513  0.58521338    -0.12100
C894        C  0.99829162  0.98054543  0.58248608    -0.26100
C895        C  0.99996329  0.01209138  0.59296894     0.36500
C896        C  0.02646119  0.02320364  0.60615109    -0.27700
F897        F  0.07717143  0.95481720  0.60057109    -0.19900
H898        H  0.02518907  0.93831521  0.57720579     0.15800
F899        F  0.97466997  0.03085770  0.59088714    -0.23600
H900        H  0.02594925  0.04615467  0.61438965     0.17700
C901        C  0.26724029  0.30805308  0.69413271    -0.27600
C902        C  0.22918532  0.30378548  0.68737577     0.06000
C903        C  0.19623393  0.26232078  0.68227040     0.25600
C904        C  0.20060145  0.22515638  0.68474316    -0.12100
C905        C  0.23782006  0.22909227  0.69235933    -0.26000
C906        C  0.27168468  0.27132955  0.69663286     0.36400
C907        C  0.22316234  0.34239876  0.68717693     0.06000
F908        F  0.15897261  0.25748647  0.67572767    -0.19800
H909        H  0.17411054  0.19317644  0.68130438     0.15800
F910        F  0.30898624  0.27738911  0.70352392    -0.23500
H911        H  0.29313406  0.33997463  0.69793991     0.17600
C912        C  0.22350324  0.36262227  0.70120741     0.25600
C913        C  0.22130536  0.40110323  0.70125857    -0.12100
C914        C  0.21869275  0.42013151  0.68732918    -0.26100
C915        C  0.21827449  0.39990389  0.67322708     0.36500
C916        C  0.22025440  0.36103912  0.67319295    -0.27700
F917        F  0.22607332  0.34506682  0.71489478    -0.19900
H918        H  0.22143178  0.41594585  0.71224460     0.15800
F919        F  0.21784411  0.41863887  0.65953129    -0.23600
H920        H  0.22084307  0.34621168  0.66229122     0.17700
C921        C  0.32392051  0.13129119  0.74695914    -0.27600
C922        C  0.34919879  0.17317753  0.75355766     0.06000
C923        C  0.35176674  0.20975430  0.74594209     0.25600
C924        C  0.32710555  0.20422981  0.73266456    -0.12100
C925        C  0.29959117  0.16216100  0.72646861    -0.26000
C926        C  0.29933876  0.12568478  0.73349375     0.36400
C927        C  0.37209859  0.17919321  0.76854140     0.06000
F928        F  0.37813397  0.25105972  0.75140423    -0.19800
H929        H  0.32923047  0.23320816  0.72737621     0.15800
F930        F  0.27456949  0.08453206  0.72768671    -0.23500
H931        H  0.32214631  0.10275945  0.75250565     0.17600
C932        C  0.36661339  0.20321641  0.78047244     0.25600
C933        C  0.39221385  0.21399657  0.79382217    -0.12100
C934        C  0.42296491  0.20005600  0.79579113    -0.26100
C935        C  0.42631458  0.17327453  0.78433298     0.36500
C936        C  0.40120034  0.16322191  0.77077453    -0.27700
F937        F  0.33652778  0.21650854  0.77916828    -0.19900
H938        H  0.38797250  0.23337571  0.80266803     0.15800
F939        F  0.45519406  0.15850876  0.78587658    -0.23600
H940        H  0.40559003  0.14428863  0.76179490     0.17700
C941        C  0.53704815  0.93163252  0.37708825    -0.27600
C942        C  0.53873006  0.94716511  0.36201027     0.06000
C943        C  0.54065520  0.92284813  0.34944838     0.25600
C944        C  0.54272260  0.88458419  0.35204520    -0.12100
C945        C  0.54357145  0.87042115  0.36718153    -0.26000
C946        C  0.53935989  0.89361958  0.37970130     0.36400
C947        C  0.54152012  0.99024024  0.35972812     0.06000
F948        F  0.54344735  0.93756593  0.33474843    -0.19800
H949        H  0.54612560  0.86743300  0.34222009     0.15800
F950        F  0.53823571  0.88007883  0.39448846    -0.23500
H951        H  0.53492511  0.94963520  0.38689778     0.17600
C952        C  0.51194602  0.99498399  0.35010424     0.25600
C953        C  0.51407578  0.03576910  0.34883729    -0.12100
C954        C  0.54582119  0.07250036  0.35709256    -0.26100
C955        C  0.57621877  0.06773058  0.36637069     0.36500
C956        C  0.57381341  0.02699571  0.36767578    -0.27700
F957        F  0.48003145  0.95989077  0.34239643    -0.19900
H958        H  0.49015560  0.03828214  0.34166773     0.15800
F959        F  0.60843409  0.10229778  0.37421142    -0.23600
H960        H  0.59731075  0.02407390  0.37496599     0.17700
C961        C  0.67305141  0.80434409  0.41177568    -0.27600
C962        C  0.66499217  0.82079091  0.42541721     0.06000
C963        C  0.62913920  0.82802270  0.42596579     0.25600
C964        C  0.60355655  0.82142918  0.41283650    -0.12100
C965        C  0.61250385  0.80654630  0.39900831    -0.26000
C966        C  0.64687945  0.79699586  0.39866481     0.36400
C967        C  0.69586749  0.83393579  0.43860505     0.06000
F968        F  0.61918227  0.84200585  0.43917606    -0.19800
H969        H  0.57688052  0.82842880  0.41343512     0.15800
F970        F  0.65692741  0.78323617  0.38543676    -0.23500
H971        H  0.70075648  0.79896634  0.41106745     0.17600
C972        C  0.70902172  0.80540612  0.44491834     0.25600
C973        C  0.73751649  0.81868805  0.45761514    -0.12100
C974        C  0.75341241  0.86063321  0.46421605    -0.26100
C975        C  0.74092102  0.88943918  0.45753228     0.36500
C976        C  0.71262286  0.87610793  0.44489725    -0.27700
F977        F  0.69331727  0.76430557  0.43913396    -0.19900
H978        H  0.74654639  0.79578127  0.46240992     0.15800
F979        F  0.75577099  0.93060321  0.46313730    -0.23600
H980        H  0.70377177  0.89900950  0.43995858     0.17700
C981        C  0.54808685  0.56920657  0.33546406    -0.27600
C982        C  0.54777424  0.55550302  0.35072211     0.06000
C983        C  0.54860860  0.58206821  0.36298995     0.25600
C984        C  0.54839916  0.62114893  0.35997520    -0.12100
C985        C  0.54681141  0.63395445  0.34469814    -0.26000
C986        C  0.54765487  0.60806072  0.33243120     0.36400
C987        C  0.54551969  0.51292864  0.35362823     0.06000
F988        F  0.54722894  0.56902040  0.37785149    -0.19800
H989        H  0.54729490  0.64025338  0.36960528     0.15800
F990        F  0.54765517  0.62005069  0.31750112    -0.23500
H991        H  0.54814173  0.54941310  0.32587493     0.17600
C992        C  0.51095305  0.47404811  0.34745691     0.25600
C993        C  0.51046099  0.43431048  0.34922744    -0.12100
C994        C  0.54429930  0.43237950  0.35723043    -0.26100
C995        C  0.57824460  0.47123645  0.36387371     0.36500
C996        C  0.57869251  0.51112483  0.36205722    -0.27700
F997        F  0.47753100  0.47449768  0.33974599    -0.19900
H998        H  0.48351831  0.40494520  0.34421655     0.15800
F999        F  0.61188499  0.47120105  0.37156717    -0.23600
H1000       H  0.60562979  0.54089903  0.36685171     0.17700
C1001       C  0.41056103  0.64688628  0.29842959    -0.27600
C1002       C  0.41764921  0.68228520  0.28894897     0.06000
C1003       C  0.45153180  0.72485068  0.29272183     0.25600
C1004       C  0.47887422  0.73130741  0.30546249    -0.12100
C1005       C  0.47301367  0.69534214  0.31442169    -0.26000
C1006       C  0.43799281  0.65316555  0.31096433     0.36400
C1007       C  0.39114409  0.67342093  0.27468234     0.06000
F1008       F  0.45955028  0.75967529  0.28366033    -0.19800
H1009       H  0.50561409  0.76404926  0.30796508     0.15800
F1010       F  0.43013920  0.61787397  0.31974711    -0.23500
H1011       H  0.38409729  0.61399753  0.29590792     0.17600
C1012       C  0.38845766  0.64177477  0.26413575     0.25600
C1013       C  0.36156742  0.63101453  0.25113985    -0.12100
C1014       C  0.33665251  0.65151554  0.24827594    -0.26100
C1015       C  0.34012811  0.68411203  0.25866846     0.36500
C1016       C  0.36721002  0.69487964  0.27175350    -0.27700
F1017       F  0.41215040  0.62132397  0.26637291    -0.19900
H1018       H  0.36028518  0.60639633  0.24328509     0.15800
F1019       F  0.31638767  0.70454000  0.25651964    -0.23600
H1020       H  0.36863919  0.71915295  0.27981119     0.17700
C1021       C  0.79123829  0.04274363  0.13506433    -0.27600
C1022       C  0.76598767  0.00943292  0.12437323     0.06000
C1023       C  0.72046174  0.98378174  0.12664962     0.25600
C1024       C  0.70078930  0.99129386  0.13934963    -0.12100
C1025       C  0.72588545  0.02436656  0.15016437    -0.26000
C1026       C  0.77148951  0.05024622  0.14786483     0.36400
C1027       C  0.78682427  0.00112333  0.11088748     0.06000
F1028       F  0.69474766  0.95176916  0.11645618    -0.19800
H1029       H  0.66560326  0.97095416  0.14068532     0.15800
F1030       F  0.79723045  0.08183197  0.15816424    -0.23500
H1031       H  0.82645196  0.06246015  0.13364707     0.17600
C1032       C  0.81475374  0.03537840  0.10087794     0.25600
C1033       C  0.83125571  0.02621741  0.08752471    -0.12100
C1034       C  0.82003356  0.98279393  0.08393497    -0.26100
C1035       C  0.79357209  0.94888536  0.09432692     0.36500
C1036       C  0.77727192  0.95808060  0.10762823    -0.27700
F1037       F  0.82456713  0.07737064  0.10365907    -0.19900
H1038       H  0.85171368  0.05288897  0.07975551     0.15800
F1039       F  0.78379143  0.90678816  0.09174307    -0.23600
H1040       H  0.75682308  0.93136615  0.11538827     0.17700
C1041       C  0.44617026  0.83739669  0.20154980    -0.27600
C1042       C  0.47144694  0.84883105  0.18804954     0.06000
C1043       C  0.45532162  0.82177777  0.17497344     0.25600
C1044       C  0.41499760  0.78307807  0.17556257    -0.12100
C1045       C  0.38989857  0.77059010  0.18919033    -0.26000
C1046       C  0.40559863  0.79859173  0.20217294     0.36400
C1047       C  0.51558117  0.88779874  0.18775046     0.06000
F1048       F  0.47860396  0.83290710  0.16160329    -0.19800
H1049       H  0.40353232  0.76279767  0.16529185     0.15800
F1050       F  0.38258810  0.78808027  0.21558973    -0.23500
H1051       H  0.45841127  0.85802212  0.21172235     0.17600
C1052       C  0.52189827  0.93025766  0.18988254     0.25600
C1053       C  0.56386972  0.96699625  0.18829150    -0.12100
C1054       C  0.59956151  0.96144749  0.18446983    -0.26100
C1055       C  0.59335753  0.91881292  0.18310168     0.36500
C1056       C  0.55165664  0.88235066  0.18469779    -0.27700
F1057       F  0.48720341  0.93612865  0.19266662    -0.19900
H1058       H  0.56813425  0.99966526  0.18930043     0.15800
F1059       F  0.62767299  0.91247978  0.18006854    -0.23600
H1060       H  0.54730146  0.84972719  0.18329730     0.17700
C1061       C  0.65175900  0.12616983  0.25288759    -0.27600
C1062       C  0.66127470  0.16886547  0.25684370     0.06000
C1063       C  0.68938774  0.20425738  0.24727365     0.25600
C1064       C  0.70837185  0.19706256  0.23426846    -0.12100
C1065       C  0.69937651  0.15449940  0.23042002    -0.26000
C1066       C  0.67052055  0.11892643  0.23975586     0.36400
C1067       C  0.64346614  0.17678222  0.27124690     0.06000
F1068       F  0.69836600  0.24581776  0.25045639    -0.19800
H1069       H  0.73026311  0.22491783  0.22717076     0.15800
F1070       F  0.66225027  0.07758309  0.23665730    -0.23500
H1071       H  0.63076610  0.09856406  0.26022938     0.17600
C1072       C  0.59839037  0.15285548  0.27468036     0.25600
C1073       C  0.58219490  0.16221606  0.28807132    -0.12100
C1074       C  0.61064975  0.19561428  0.29824161    -0.26100
C1075       C  0.65604149  0.21825859  0.29503126     0.36500
C1076       C  0.67202989  0.20892707  0.28167969    -0.27700
F1077       F  0.56983636  0.12161969  0.26480355    -0.19900
H1078       H  0.54721923  0.14413583  0.29024731     0.15800
F1079       F  0.68527569  0.24929874  0.30482694    -0.23600
H1080       H  0.70701210  0.22689947  0.27948326     0.17700
C1081       C  0.95872452  0.36571693  0.19780326    -0.27600
C1082       C  0.95633271  0.32731070  0.19193584     0.06000
C1083       C  0.99250037  0.33046011  0.18389176     0.25600
C1084       C  0.03090386  0.37126472  0.18235561    -0.12100
C1085       C  0.03392813  0.40929257  0.18897621    -0.26000
C1086       C  0.99707908  0.40614906  0.19652580     0.36400
C1087       C  0.91610737  0.28454705  0.19475457     0.06000
F1088       F  0.99149341  0.29398919  0.17816338    -0.19800
H1089       H  0.05883415  0.37279856  0.17650248     0.15800
F1090       F  0.99795701  0.44208703  0.20274022    -0.23500
H1091       H  0.93080390  0.36431394  0.20362146     0.17600
C1092       C  0.89742106  0.27461486  0.20959329     0.25600
C1093       C  0.85621469  0.23803793  0.21192323    -0.12100
C1094       C  0.83275451  0.21010887  0.19959785    -0.26100
C1095       C  0.85292986  0.21786003  0.18497774     0.36500
C1096       C  0.89423956  0.25509243  0.18258532    -0.27700
F1097       F  0.91858877  0.30098612  0.22182912    -0.19900
H1098       H  0.84220786  0.23220796  0.22341404     0.15800
F1099       F  0.83193782  0.19109221  0.17282220    -0.23600
H1100       H  0.90813230  0.26199984  0.17107093     0.17700
C1101       C  0.86483264  0.24136988  0.36245996    -0.27600
C1102       C  0.84155449  0.24501102  0.34988041     0.06000
C1103       C  0.85893709  0.25018020  0.33493829     0.25600
C1104       C  0.90009208  0.25442489  0.33272625    -0.12100
C1105       C  0.92456347  0.25288708  0.34531923    -0.26000
C1106       C  0.90602292  0.24505850  0.36022821     0.36400
C1107       C  0.80102688  0.24708120  0.35230058     0.06000
F1108       F  0.83620580  0.25165041  0.32247090    -0.19800
H1109       H  0.91305698  0.25941077  0.32109006     0.15800
F1110       F  0.92847855  0.24324804  0.37271418    -0.23500
H1111       H  0.85188607  0.23741301  0.37406789     0.17600
C1112       C  0.76437872  0.21321775  0.35985194     0.25600
C1113       C  0.72584753  0.21537714  0.36125534    -0.12100
C1114       C  0.72333462  0.25127660  0.35513294    -0.26100
C1115       C  0.76057842  0.28563713  0.34796786     0.36500
C1116       C  0.79890336  0.28342296  0.34659746    -0.27700
F1117       F  0.76530175  0.17742683  0.36533418    -0.19900
H1118       H  0.69761470  0.18841018  0.36679281     0.15800
F1119       F  0.76025906  0.32169275  0.34243273    -0.23600
H1120       H  0.82715711  0.31022789  0.34100222     0.17700
C1121       C  0.12028121  0.36294251  0.29633853    -0.27600
C1122       C  0.09716262  0.37769336  0.28708127     0.06000
C1123       C  0.05418765  0.36598710  0.29141412     0.25600
C1124       C  0.03461592  0.33948168  0.30432625    -0.12100
C1125       C  0.05717714  0.32403165  0.31357142    -0.26000
C1126       C  0.10070619  0.33658036  0.30948350     0.36400
C1127       C  0.11724448  0.40515227  0.27295762     0.06000
F1128       F  0.03118107  0.38108179  0.28337621    -0.19800
H1129       H  0.00138361  0.33132741  0.30708193     0.15800
F1130       F  0.12446649  0.32359536  0.31810945    -0.23500
H1131       H  0.15342077  0.37138852  0.29329003     0.17600
C1132       C  0.15971602  0.44231901  0.27321384     0.25600
C1133       C  0.17636729  0.46962095  0.26017816    -0.12100
C1134       C  0.15071298  0.46102456  0.24679919    -0.26100
C1135       C  0.10890986  0.42323708  0.24632968     0.36500
C1136       C  0.09268858  0.39544457  0.25919544    -0.27700
F1137       F  0.18423444  0.45369489  0.28630254    -0.19900
H1138       H  0.20860388  0.49865864  0.26077997     0.15800
F1139       F  0.08377871  0.41308795  0.23339094    -0.23600
H1140       H  0.06042667  0.36649981  0.25847313     0.17700
C1141       C  0.95807561  0.13126984  0.41340702    -0.27600
C1142       C  0.98314765  0.12424323  0.42452870     0.06000
C1143       C  0.02884735  0.14510001  0.42263507     0.25600
C1144       C  0.04863032  0.16999282  0.40945373    -0.12100
C1145       C  0.02357078  0.17507257  0.39779641    -0.26000
C1146       C  0.97805399  0.15662013  0.40014294     0.36400
C1147       C  0.96205808  0.09287224  0.43750955     0.06000
F1148       F  0.05444189  0.14075905  0.43345999    -0.19800
H1149       H  0.08383423  0.18465423  0.40825914     0.15800
F1150       F  0.95253607  0.16109101  0.38934314    -0.23500
H1151       H  0.92280345  0.11559436  0.41466466     0.17600
C1152       C  0.93282676  0.09618771  0.44776085     0.25600
C1153       C  0.91633530  0.06801255  0.46058239    -0.12100
C1154       C  0.92909558  0.03649847  0.46342627    -0.26100
C1155       C  0.95691115  0.03216154  0.45277783     0.36500
C1156       C  0.97290549  0.05988817  0.43997447    -0.27700
F1157       F  0.92193722  0.12792823  0.44581805    -0.19900
H1158       H  0.89496837  0.07198532  0.46860856     0.15800
F1159       F  0.96876309  0.00108073  0.45471232    -0.23600
H1160       H  0.99447796  0.05598610  0.43202083     0.17700
C1161       C  0.22291335  0.25924806  0.35283225    -0.27600
C1162       C  0.23162012  0.22832888  0.35991447     0.06000
C1163       C  0.19805589  0.19343803  0.36829955     0.25600
C1164       C  0.15728509  0.19060724  0.36999748    -0.12100
C1165       C  0.14879689  0.22213804  0.36326126    -0.26000
C1166       C  0.18184768  0.25617318  0.35441283     0.36400
C1167       C  0.27621550  0.23378738  0.35925407     0.06000
F1168       F  0.20464464  0.16201043  0.37485911    -0.19800
H1169       H  0.13230814  0.16368761  0.37671385     0.15800
F1170       F  0.17535024  0.28770156  0.34794054    -0.23500
H1171       H  0.24844815  0.28671176  0.34648914     0.17600
C1172       C  0.29906102  0.24185718  0.34519625     0.25600
C1173       C  0.34119310  0.24708209  0.34490545    -0.12100
C1174       C  0.36095689  0.24371860  0.35857302    -0.26100
C1175       C  0.33814475  0.23598198  0.37263876     0.36500
C1176       C  0.29642465  0.23138173  0.37293498    -0.27700
F1177       F  0.28011559  0.24324380  0.33169127    -0.19900
H1178       H  0.35787059  0.25255835  0.33391875     0.15800
F1179       F  0.35633748  0.23348572  0.38618215    -0.23600
H1180       H  0.27991964  0.22618846  0.38394498     0.17700
C1181       C  0.53872817  0.87675359  0.02777545    -0.27600
C1182       C  0.57517103  0.91798348  0.02450435     0.06000
C1183       C  0.56964033  0.95478874  0.02305447     0.25600
C1184       C  0.52829346  0.95045642  0.02548912    -0.12100
C1185       C  0.49222822  0.90948723  0.02951473    -0.26000
C1186       C  0.49757012  0.87242312  0.03025238     0.36400
C1187       C  0.61912230  0.92243720  0.02391857     0.06000
F1188       F  0.60456232  0.99513325  0.02010171    -0.19800
H1189       H  0.52482167  0.97939901  0.02484842     0.15800
F1190       F  0.46297461  0.83198477  0.03333230    -0.23500
H1191       H  0.54245733  0.84800236  0.02873082     0.17600
C1192       C  0.63596856  0.91281581  0.03711946     0.25600
C1193       C  0.67626878  0.91429055  0.03653915    -0.12100
C1194       C  0.70083136  0.92566274  0.02279635    -0.26100
C1195       C  0.68423286  0.93620531  0.00959809     0.36500
C1196       C  0.64365038  0.93461756  0.01021561    -0.27700
F1197       F  0.61346888  0.90235435  0.05064991    -0.19900
H1198       H  0.68834534  0.90671177  0.04694877     0.15800
F1199       F  0.70646739  0.94686216  0.99601175    -0.23600
H1200       H  0.63090675  0.94198020  0.99992929     0.17700
C1201       C  0.34598730  0.78639412  0.07983464    -0.27600
C1202       C  0.32049180  0.79697792  0.08943676     0.06000
C1203       C  0.31404971  0.83211636  0.08518027     0.25600
C1204       C  0.33438319  0.85705840  0.07185414    -0.12100
C1205       C  0.36155151  0.84747079  0.06264987    -0.26000
C1206       C  0.36623883  0.81112432  0.06664587     0.36400
C1207       C  0.30376552  0.77245074  0.10422774     0.06000
F1208       F  0.29001907  0.84367931  0.09425931    -0.19800
H1209       H  0.33020486  0.88484103  0.06906017     0.15800
F1210       F  0.39047111  0.79927295  0.05780319    -0.23500
H1211       H  0.35079929  0.75903644  0.08271757     0.17600
C1212       C  0.25894901  0.75035345  0.10813193     0.25600
C1213       C  0.24406364  0.72305812  0.12125891    -0.12100
C1214       C  0.27357875  0.71741998  0.13072790    -0.26100
C1215       C  0.31868179  0.74163004  0.12717381     0.36500
C1216       C  0.33330699  0.76844405  0.11408242    -0.27700
F1217       F  0.22936187  0.75344299  0.09890509    -0.19900
H1218       H  0.20925684  0.70535698  0.12375219     0.15800
F1219       F  0.34899586  0.73961768  0.13633520    -0.23600
H1220       H  0.36807227  0.78582223  0.11148039     0.17700
C1221       C  0.42931744  0.08545515  0.96892054    -0.27600
C1222       C  0.44848666  0.07041405  0.95808893     0.06000
C1223       C  0.45304975  0.03382246  0.96186017     0.25600
C1224       C  0.43587712  0.01112747  0.97578724    -0.12100
C1225       C  0.41359142  0.02435095  0.98597966    -0.26000
C1226       C  0.41166610  0.06253798  0.98262942     0.36400
C1227       C  0.46117631  0.09203646  0.94270973     0.06000
F1228       F  0.47148384  0.01834815  0.95170675    -0.19800
H1229       H  0.43766873  0.98175101  0.97816059     0.15800
F1230       F  0.39178026  0.07720876  0.99247862    -0.23500
H1231       H  0.42679917  0.11442828  0.96653357     0.17600
C1232       C  0.43195076  0.10093266  0.93447258     0.25600
C1233       C  0.44492266  0.12482293  0.92072710    -0.12100
C1234       C  0.48712178  0.13997323  0.91466153    -0.26100
C1235       C  0.51559558  0.12885035  0.92246211     0.36500
C1236       C  0.50271112  0.10538602  0.93640265    -0.27700
F1237       F  0.39059292  0.08642687  0.93971480    -0.19900
H1238       H  0.42176001  0.13177152  0.91491553     0.15800
F1239       F  0.55623363  0.14137251  0.91690042    -0.23600
H1240       H  0.52571353  0.09875405  0.94249209     0.17700
C1241       C  0.21454096  0.96072777  0.00609493    -0.27600
C1242       C  0.19292919  0.94601199  0.02033538     0.06000
C1243       C  0.21351415  0.93522755  0.03217221     0.25600
C1244       C  0.25514363  0.94006756  0.02979463    -0.12100
C1245       C  0.27739039  0.95656104  0.01572457    -0.26000
C1246       C  0.25640227  0.96675629  0.00385512     0.36400
C1247       C  0.14970369  0.94341094  0.02261833     0.06000
F1248       F  0.19431587  0.92169777  0.04622556    -0.19800
H1249       H  0.27047604  0.93205938  0.03914053     0.15800
F1250       F  0.27598104  0.98237578  0.98995994    -0.23500
H1251       H  0.19903911  0.96795972  0.99659900     0.17600
C1252       C  0.14301010  0.97745447  0.01718105     0.25600
C1253       C  0.10175048  0.97374665  0.01810555    -0.12100
C1254       C  0.06615428  0.93660742  0.02478246    -0.26100
C1255       C  0.07306375  0.90327837  0.03087968     0.36500
C1256       C  0.11439435  0.90654365  0.02964305    -0.27700
F1257       F  0.17652509  0.01475006  0.01105752    -0.19900
H1258       H  0.09774184  0.00036537  0.01361406     0.15800
F1259       F  0.03965219  0.86683158  0.03746805    -0.23600
H1260       H  0.11841419  0.87965198  0.03380122     0.17700
C1261       C  0.29942735  0.46451975  0.58179040    -0.27600
C1262       C  0.31530314  0.50809072  0.58670674     0.06000
C1263       C  0.34936805  0.54245524  0.57836226     0.25600
C1264       C  0.36784634  0.53341671  0.56565020    -0.12100
C1265       C  0.35318643  0.48989537  0.56088824    -0.26000
C1266       C  0.31829475  0.45533603  0.56903259     0.36400
C1267       C  0.29897395  0.51792576  0.60112433     0.06000
F1268       F  0.36513642  0.58498867  0.58259263    -0.19800
H1269       H  0.39431217  0.56089715  0.55961778     0.15800
F1270       F  0.30387252  0.41279182  0.56521441    -0.23500
H1271       H  0.27356528  0.43752273  0.58820609     0.17600
C1272       C  0.25416890  0.50323101  0.60343977     0.25600
C1273       C  0.24011347  0.51400394  0.61707991    -0.12100
C1274       C  0.27053526  0.53982022  0.62854238    -0.26100
C1275       C  0.31525624  0.55416161  0.62620399     0.36500
C1276       C  0.32913521  0.54319625  0.61267595    -0.27700
F1277       F  0.22426494  0.47966987  0.59234881    -0.19900
H1278       H  0.20555023  0.50288266  0.61855485     0.15800
F1279       F  0.34557799  0.57793149  0.63716393    -0.23600
H1280       H  0.36371276  0.55431984  0.61123583     0.17700
C1281       C  0.55420953  0.60707599  0.54103153    -0.27600
C1282       C  0.57176542  0.61855884  0.52610544     0.06000
C1283       C  0.54811958  0.59149294  0.51358106     0.25600
C1284       C  0.50627918  0.55498554  0.51597407    -0.12100
C1285       C  0.48767172  0.54541627  0.53083754    -0.26000
C1286       C  0.51260239  0.57116971  0.54340908     0.36400
C1287       C  0.61329482  0.66045706  0.52392806     0.06000
F1288       F  0.56436321  0.60166516  0.49900446    -0.19800
H1289       H  0.48773156  0.53538096  0.50615167     0.15800
F1290       F  0.49670094  0.56187989  0.55805516    -0.23500
H1291       H  0.57245169  0.62680914  0.55088238     0.17600
C1292       C  0.61783274  0.69926406  0.53035752     0.25600
C1293       C  0.65812734  0.73806486  0.52998676    -0.12100
C1294       C  0.69455029  0.73947125  0.52280674    -0.26100
C1295       C  0.68937898  0.70120162  0.51551521     0.36500
C1296       C  0.64908914  0.66187924  0.51624912    -0.27700
F1297       F  0.58303608  0.69964115  0.53696709    -0.19900
H1298       H  0.66069676  0.76723776  0.53526043     0.15800
F1299       F  0.72341913  0.70132505  0.50809814    -0.23600
H1300       H  0.64615010  0.63233956  0.51116655     0.17700
C1301       C  0.22054782  0.20724444  0.52284209    -0.27600
C1302       C  0.18368502  0.21251421  0.52438405     0.06000
C1303       C  0.18971356  0.25527999  0.52487567     0.25600
C1304       C  0.23164826  0.29179291  0.52296122    -0.12100
C1305       C  0.26788485  0.28612762  0.52030834    -0.26000
C1306       C  0.26219849  0.24358866  0.52065195     0.36400
C1307       C  0.13919594  0.17319792  0.52436168     0.06000
F1308       F  0.15489970  0.26172915  0.52625398    -0.19800
H1309       H  0.23545101  0.32438152  0.52274769     0.15800
F1310       F  0.29686897  0.23712225  0.51875729    -0.23500
H1311       H  0.21687915  0.17470787  0.52291435     0.17600
C1312       C  0.12791459  0.14035373  0.51313244     0.25600
C1313       C  0.08645766  0.10298603  0.51313991    -0.12100
C1314       C  0.05491090  0.09739209  0.52424425    -0.26100
C1315       C  0.06595790  0.13069047  0.53537094     0.36500
C1316       C  0.10777592  0.16813706  0.53540015    -0.27700
F1317       F  0.15675060  0.14470047  0.50190710    -0.19900
H1318       H  0.07924929  0.07831018  0.50436556     0.15800
F1319       F  0.03666505  0.12723816  0.54626058    -0.23600
H1320       H  0.11581496  0.19294835  0.54419500     0.17700
C1321       C  0.41602230  0.30373894  0.47149144    -0.27600
C1322       C  0.43637842  0.33708377  0.46036728     0.06000
C1323       C  0.43891370  0.37786769  0.46301438     0.25600
C1324       C  0.42008928  0.38440887  0.47633262    -0.12100
C1325       C  0.39810334  0.35030437  0.48713224    -0.26000
C1326       C  0.39719457  0.31018472  0.48473480     0.36400
C1327       C  0.45218570  0.32764830  0.44570821     0.06000
F1328       F  0.45743189  0.41049606  0.45234425    -0.19800
H1329       H  0.42102382  0.41549048  0.47786069     0.15800
F1330       F  0.37803469  0.27706236  0.49520438    -0.23500
H1331       H  0.41420188  0.27228990  0.46979392     0.17600
C1332       C  0.49576734  0.35366063  0.44066400     0.25600
C1333       C  0.51001932  0.34280171  0.42707928    -0.12100
C1334       C  0.48111449  0.30588317  0.41821025    -0.26100
C1335       C  0.43718326  0.28042997  0.42322214     0.36500
C1336       C  0.42320895  0.29117999  0.43681218    -0.27700
F1337       F  0.52491818  0.38872337  0.44911680    -0.19900
H1338       H  0.54395888  0.36303281  0.42363583     0.15800
F1339       F  0.40731986  0.24519010  0.41500191    -0.23600
H1340       H  0.38937171  0.27094549  0.44039735     0.17700
C1341       C  0.65419815  0.41344261  0.77365122    -0.27600
C1342       C  0.63622703  0.43996796  0.76976363     0.06000
C1343       C  0.60050305  0.43607485  0.77830057     0.25600
C1344       C  0.58454472  0.40749311  0.79099455    -0.12100
C1345       C  0.60382202  0.38223671  0.79530420    -0.26000
C1346       C  0.63836233  0.38491767  0.78623484     0.36400
C1347       C  0.65599490  0.47197324  0.75697111     0.06000
F1348       F  0.58216466  0.46104549  0.77473602    -0.19800
H1349       H  0.55783425  0.40599505  0.79768261     0.15800
F1350       F  0.65693474  0.35991226  0.78941842    -0.23500
H1351       H  0.68091588  0.41502874  0.76692852     0.17600
C1352       C  0.70159692  0.50055624  0.75656830     0.25600
C1353       C  0.72116455  0.52687737  0.74366586    -0.12100
C1354       C  0.69575260  0.52554902  0.73092380    -0.26100
C1355       C  0.64976973  0.49892368  0.73169024     0.36500
C1356       C  0.63015136  0.47221826  0.74462702    -0.27700
F1357       F  0.72738497  0.50245342  0.76857704    -0.19900
H1358       H  0.75651971  0.54767993  0.74352687     0.15800
F1359       F  0.62397184  0.49665294  0.71963709    -0.23600
H1360       H  0.59496737  0.45032191  0.74471043     0.17700
C1361       C  0.89375361  0.59521100  0.70890514    -0.27600
C1362       C  0.90743108  0.59048384  0.69419812     0.06000
C1363       C  0.88064503  0.58478569  0.68132196     0.25600
C1364       C  0.84005557  0.58258061  0.68330160    -0.12100
C1365       C  0.82570265  0.58574401  0.69814723    -0.26000
C1366       C  0.85346990  0.59310447  0.71089572     0.36400
C1367       C  0.94895673  0.58996082  0.69265159     0.06000
F1368       F  0.89279401  0.57925717  0.66699173    -0.19800
H1369       H  0.81912030  0.57659548  0.67334133     0.15800
F1370       F  0.84166058  0.59818020  0.72534376    -0.23500
H1371       H  0.91429209  0.60023086  0.71891325     0.17600
C1372       C  0.98277281  0.62008208  0.68304754     0.25600
C1373       C  0.02248856  0.62014067  0.68224106    -0.12100
C1374       C  0.02927208  0.59033705  0.69107048    -0.26100
C1375       C  0.99495618  0.55991394  0.70062939     0.36500
C1376       C  0.95537919  0.55996972  0.70138793    -0.27700
F1377       F  0.97798078  0.65049449  0.67490211    -0.19900
H1378       H  0.04825609  0.64419011  0.67491171     0.15800
F1379       F  0.99929336  0.52993752  0.70925201    -0.23600
H1380       H  0.92954180  0.53647014  0.70884296     0.17700
C1381       C  0.46652165  0.62719037  0.67902234    -0.27600
C1382       C  0.46879669  0.59101246  0.68478907     0.06000
C1383       C  0.43284897  0.55793204  0.69287146     0.25600
C1384       C  0.39462397  0.56042555  0.69466611    -0.12100
C1385       C  0.39167991  0.59588760  0.68839854    -0.26000
C1386       C  0.42848808  0.62982626  0.68082893     0.36400
C1387       C  0.50859143  0.58794669  0.68197666     0.06000
F1388       F  0.43404892  0.52236430  0.69843195    -0.19800
H1389       H  0.36680323  0.53383991  0.70051712     0.15800
F1390       F  0.42790216  0.66568202  0.67521601    -0.23500
H1391       H  0.49431894  0.65340553  0.67302451     0.17600
C1392       C  0.52345324  0.58952689  0.66682093     0.25600
C1393       C  0.56302231  0.59050990  0.66418506    -0.12100
C1394       C  0.58861973  0.58989758  0.67659197    -0.26100
C1395       C  0.57279568  0.58657071  0.69177789     0.36500
C1396       C  0.53303403  0.58557998  0.69439606    -0.27700
F1397       F  0.49972927  0.59034329  0.65455674    -0.19900
H1398       H  0.57392412  0.59239115  0.65236390     0.15800
F1399       F  0.59653613  0.58639348  0.70412805    -0.23600
H1400       H  0.52202902  0.58449395  0.70615808     0.17700
C1401       C  0.77751980  0.67549643  0.62456313    -0.27600
C1402       C  0.75758118  0.69426016  0.61573599     0.06000
C1403       C  0.71600483  0.68703762  0.61997446     0.25600
C1404       C  0.69525596  0.66242340  0.63303698    -0.12100
C1405       C  0.71545238  0.64455049  0.64225461    -0.26000
C1406       C  0.75664322  0.65064249  0.63772550     0.36400
C1407       C  0.78045705  0.72331144  0.60256116     0.06000
F1408       F  0.69621485  0.70554187  0.61188028    -0.19800
H1409       H  0.66368731  0.65852222  0.63612919     0.15800
F1410       F  0.77697683  0.63305474  0.64599025    -0.23500
H1411       H  0.80939635  0.68042103  0.62131966     0.17600
C1412       C  0.82199840  0.76092793  0.60447983     0.25600
C1413       C  0.83943175  0.79252100  0.59276656    -0.12100
C1414       C  0.81520761  0.78703793  0.57924726    -0.26100
C1415       C  0.77515402  0.74821875  0.57694543     0.36500
C1416       C  0.75813309  0.71643799  0.58848590    -0.27700
F1417       F  0.84423766  0.76850885  0.61800781    -0.19900
H1418       H  0.87075376  0.82212471  0.59452898     0.15800
F1419       F  0.75240153  0.74126600  0.56355793    -0.23600
H1420       H  0.72654849  0.68717128  0.58670507     0.17700
C1421       C  0.23121414  0.94549196  0.87747076    -0.27600
C1422       C  0.24773427  0.95499454  0.86236559     0.06000
C1423       C  0.22542695  0.92376871  0.85066278     0.25600
C1424       C  0.18589882  0.88504371  0.85398080    -0.12100
C1425       C  0.16814537  0.87682489  0.86900634    -0.26000
C1426       C  0.19208674  0.90713725  0.88080405     0.36400
C1427       C  0.28749503  0.99817810  0.85918739     0.06000
F1428       F  0.24073616  0.93151325  0.83593745    -0.19800
H1429       H  0.16850727  0.86224727  0.84468667     0.15800
F1430       F  0.17778866  0.90009443  0.89565690    -0.23500
H1431       H  0.24856298  0.96828232  0.88677859     0.17600
C1432       C  0.29025407  0.03711969  0.86479395     0.25600
C1433       C  0.32914230  0.07730008  0.86339729    -0.12100
C1434       C  0.36610354  0.07990661  0.85618098    -0.26100
C1435       C  0.36283268  0.04121902  0.84995809     0.36500
C1436       C  0.32387737  0.00076214  0.85151944    -0.27700
F1437       F  0.25522179  0.03630474  0.87170028    -0.19900
H1438       H  0.33032344  0.10652219  0.86803878     0.15800
F1439       F  0.39777291  0.04201864  0.84299321    -0.23600
H1440       H  0.32266873  0.97121497  0.84721676     0.17700
C1441       C  0.97471573  0.80046034  0.91568789    -0.27600
C1442       C  0.00053146  0.82368973  0.92849059     0.06000
C1443       C  0.04497217  0.83539480  0.92877550     0.25600
C1444       C  0.06414883  0.82770201  0.91592802    -0.07300
C1445       C  0.03916809  0.80703159  0.90269721    -0.26000
C1446       C  0.99376792  0.79180812  0.90289564     0.36400
C1447       C  0.98219547  0.83826655  0.94111014     0.06000
F1448       F  0.06999320  0.85492999  0.94144167    -0.19800
H1449       H  0.09888611  0.83858725  0.91622770     0.15800
F1450       F  0.96841124  0.77104373  0.89041681    -0.23500
H1451       H  0.94024063  0.79064904  0.91534435     0.17600
C1452       C  0.00161377  0.88317846  0.94478431     0.25600
C1453       C  0.98562631  0.89707539  0.95704073    -0.12100
C1454       C  0.94971122  0.86658337  0.96588345    -0.26100
C1455       C  0.93002281  0.82148639  0.96206914     0.36500
C1456       C  0.94601502  0.80767521  0.94972884    -0.27700
F1457       F  0.03579160  0.91375640  0.93633978    -0.19900
H1458       H  0.00130588  0.93191437  0.95953252     0.15800
F1459       F  0.89611239  0.79047573  0.97048911    -0.23600
H1460       H  0.93076995  0.77292978  0.94711419     0.17700
C1461       C  0.79350256  0.49196815  0.84404659    -0.27600
C1462       C  0.81089063  0.51208167  0.85833749     0.06000
C1463       C  0.78472222  0.49658555  0.87164224     0.25600
C1464       C  0.74245483  0.46022627  0.87067715    -0.12100
C1465       C  0.72583668  0.43880727  0.85646392    -0.26000
C1466       C  0.75159605  0.45550134  0.84307721     0.36400
C1467       C  0.85691297  0.54799982  0.85905277     0.06000
F1468       F  0.80064126  0.51524024  0.88563351    -0.19800
H1469       H  0.72331301  0.44792356  0.88116282     0.15800
F1470       F  0.73648848  0.43666691  0.82903963    -0.23500
H1471       H  0.81282612  0.50421615  0.83359253     0.17600
C1472       C  0.88966770  0.54254001  0.85190885     0.25600
C1473       C  0.93179299  0.57813359  0.85025805    -0.12100
C1474       C  0.94242229  0.61978805  0.85588978    -0.26100
C1475       C  0.91070122  0.62446228  0.86429050     0.36500
C1476       C  0.86803447  0.58871956  0.86572985    -0.27700
F1477       F  0.88055578  0.50290753  0.84612569    -0.19900
H1478       H  0.95590890  0.57325972  0.84416238     0.15800
F1479       F  0.91997205  0.66391113  0.87027447    -0.23600
H1480       H  0.84323262  0.59340547  0.87139188     0.17700
C1481       C  0.12036201  0.62747244  0.77611095    -0.27600
C1482       C  0.11968329  0.66690812  0.77775103     0.06000
C1483       C  0.13612732  0.69808243  0.76572115     0.25600
C1484       C  0.15256761  0.68947139  0.75222767    -0.12100
C1485       C  0.15199095  0.64940233  0.75050980    -0.26000
C1486       C  0.13604937  0.61860723  0.76260006     0.36400
C1487       C  0.10048082  0.67419252  0.79188801     0.06000
F1488       F  0.13456938  0.73586703  0.76676170    -0.19800
H1489       H  0.16437268  0.71336263  0.74293108     0.15800
F1490       F  0.13615155  0.58008198  0.76139198    -0.23500
H1491       H  0.10842793  0.60331759  0.78532141     0.17600
C1492       C  0.05834059  0.64227146  0.79670034     0.25600
C1493       C  0.04087923  0.64788517  0.81038076    -0.12100
C1494       C  0.06483548  0.68551652  0.81964952    -0.26100
C1495       C  0.10704620  0.71771865  0.81474178     0.36500
C1496       C  0.12454240  0.71202469  0.80095034    -0.27700
F1497       F  0.03370601  0.60579214  0.78803719    -0.19900
H1498       H  0.00821833  0.62247041  0.81364155     0.15800
F1499       F  0.13175202  0.75431542  0.82330284    -0.23600
H1500       H  0.15729810  0.73677603  0.79748909     0.17700
C1501       C  0.31936349  0.16529096  0.25003573    -0.27600
C1502       C  0.35315662  0.15638284  0.25369372     0.06000
C1503       C  0.36151146  0.13025376  0.24349501     0.25600
C1504       C  0.33461324  0.11073755  0.23067589    -0.12100
C1505       C  0.29900874  0.11716772  0.22748883    -0.26000
C1506       C  0.29263493  0.14613833  0.23698830     0.36400
C1507       C  0.37726071  0.17068921  0.26866707     0.06000
F1508       F  0.39527541  0.12273420  0.24612242    -0.19800
H1509       H  0.34114341  0.08955720  0.22340541     0.15800
F1510       F  0.25913175  0.15395185  0.23425467    -0.23500
H1511       H  0.31228322  0.18536510  0.25767660     0.17600
C1512       C  0.39670265  0.21435695  0.27396505     0.25600
C1513       C  0.42069534  0.22661717  0.28785097    -0.12100
C1514       C  0.42573372  0.19560715  0.29671278    -0.26100
C1515       C  0.40518531  0.15177028  0.29150499     0.36500
C1516       C  0.38119638  0.13965761  0.27776435    -0.27700
F1517       F  0.39377675  0.24540878  0.26550730    -0.19900
H1518       H  0.43605783  0.26062780  0.29149695     0.15800
F1519       F  0.40785061  0.12018452  0.29970154    -0.23600
H1520       H  0.36553312  0.10556745  0.27418617     0.17700
C1521       C  0.18902310  0.90555687  0.18787952    -0.27600
C1522       C  0.22047584  0.89645192  0.19414777     0.06000
C1523       C  0.25757980  0.93033462  0.20149250     0.25600
C1524       C  0.26225136  0.97202106  0.20302158    -0.12100
C1525       C  0.23005496  0.98103941  0.19730570    -0.26000
C1526       C  0.19355907  0.94738145  0.18945027     0.36400
C1527       C  0.21457501  0.85166745  0.19315355     0.06000
F1528       F  0.28951746  0.92318152  0.20714915    -0.19800
H1529       H  0.29107490  0.99715914  0.20891115     0.15800
F1530       F  0.16151119  0.95419571  0.18371578    -0.23500
H1531       H  0.16029873  0.87986087  0.18211244     0.17600
C1532       C  0.21676598  0.83008242  0.20653576     0.25600
C1533       C  0.21461880  0.78939793  0.20543645    -0.12100
C1534       C  0.20955361  0.76897871  0.19102522    -0.26100
C1535       C  0.20547334  0.78972583  0.17766839     0.36500
C1536       C  0.20804685  0.83077961  0.17877525    -0.27700
F1537       F  0.22070905  0.84823570  0.22071202    -0.19900
H1538       H  0.21688253  0.77377157  0.21593441     0.15800
F1539       F  0.20082431  0.77134617  0.16349692    -0.23600
H1540       H  0.20618013  0.84688118  0.16834419     0.17700
C1541       C  0.04486388  0.03727486  0.10379556    -0.27600
C1542       C  0.02949246  0.00575230  0.11569150     0.06000
C1543       C  0.99387481  0.96361807  0.11274728     0.25600
C1544       C  0.97410909  0.95343356  0.09810531    -0.12100
C1545       C  0.98913555  0.98523968  0.08627409    -0.26000
C1546       C  0.02489882  0.02726238  0.08923214     0.36400
C1547       C  0.04891466  0.01896499  0.13134081     0.06000
F1548       F  0.97709908  0.93304950  0.12416929    -0.19800
H1549       H  0.94622618  0.92099482  0.09611217     0.15800
F1550       F  0.04103561  0.05836315  0.07797797    -0.23500
H1551       H  0.07226691  0.06996399  0.10587606     0.17600
C1552       C  0.07143442  0.00004640  0.13856726     0.25600
C1553       C  0.09459679  0.01793915  0.15241676    -0.12100
C1554       C  0.09513287  0.05457164  0.15932268    -0.26100
C1555       C  0.06972645  0.07110433  0.15244526     0.36500
C1556       C  0.04744872  0.05369297  0.13862884    -0.27700
F1557       F  0.07291550  0.96589879  0.13184455    -0.19900
H1558       H  0.11328002  0.00409046  0.15741578     0.15800
F1559       F  0.06730948  0.10530887  0.15865422    -0.23600
H1560       H  0.02968799  0.06820833  0.13334761     0.17700
C1561       C  0.20565999  0.34634969  0.20550298    -0.27600
C1562       C  0.18584414  0.31764901  0.19300750     0.06000
C1563       C  0.17415774  0.33286219  0.17981932     0.25600
C1564       C  0.18199688  0.37589754  0.17919036    -0.12100
C1565       C  0.20159187  0.40487654  0.19168440    -0.26000
C1566       C  0.21339197  0.38953902  0.20493585     0.36400
C1567       C  0.17748532  0.27193983  0.19363733     0.06000
F1568       F  0.15587672  0.30632667  0.16737645    -0.19800
H1569       H  0.17262822  0.38647760  0.16881275     0.15800
F1570       F  0.23139985  0.41565211  0.21749313    -0.23500
H1571       H  0.21454083  0.33503519  0.21581762     0.17600
C1572       C  0.21176740  0.26326426  0.19654826     0.25600
C1573       C  0.20415760  0.22019391  0.19582675    -0.12100
C1574       C  0.16242945  0.18520697  0.19198860    -0.26100
C1575       C  0.12770930  0.19376909  0.18972562     0.36500
C1576       C  0.13529212  0.23674545  0.19057021    -0.27700
F1577       F  0.25316387  0.29669433  0.19913606    -0.19900
H1578       H  0.23151219  0.21457822  0.19744511     0.15800
F1579       F  0.08655260  0.16074848  0.18646406    -0.23600
H1580       H  0.10831147  0.24272232  0.18853493     0.17700
C1581       C  0.32380697  0.99316052  0.34960279    -0.27600
C1582       C  0.28486939  0.99081043  0.35475108     0.06000
C1583       C  0.28692371  0.02782331  0.36182866     0.25600
C1584       C  0.32712043  0.06715336  0.36293745    -0.12100
C1585       C  0.36577592  0.07010228  0.35702895    -0.26000
C1586       C  0.36384749  0.03227461  0.35070086     0.36400
C1587       C  0.24244256  0.95023550  0.35185418     0.06000
F1588       F  0.24991158  0.02656686  0.36701288    -0.19800
H1589       H  0.32777101  0.09572606  0.36796102     0.15800
F1590       F  0.40068711  0.03292572  0.34565340    -0.23500
H1591       H  0.32305253  0.96462388  0.34449411     0.17600
C1592       C  0.23195184  0.93273537  0.33684728     0.25600
C1593       C  0.19400503  0.89261651  0.33415223    -0.12100
C1594       C  0.16545659  0.86906983  0.34632107    -0.26100
C1595       C  0.17503661  0.88734099  0.36129523     0.36500
C1596       C  0.21327848  0.92767601  0.36399547    -0.27700
F1597       F  0.25865939  0.95444640  0.32475943    -0.19900
H1598       H  0.18723686  0.87968850  0.32249010     0.15800
F1599       F  0.14882454  0.86531507  0.37344971    -0.23600
H1600       H  0.22092763  0.94052955  0.37565600     0.17700
C1601       C  0.15156792  0.72445249  0.29845733    -0.27600
C1602       C  0.11573607  0.69249787  0.29008807     0.06000
C1603       C  0.07297666  0.67879991  0.29539451     0.25600
C1604       C  0.06660332  0.69940225  0.30827631    -0.12100
C1605       C  0.10279953  0.73365704  0.31599040    -0.26000
C1606       C  0.14539434  0.74483714  0.31119629     0.36400
C1607       C  0.12438439  0.67610792  0.27548292     0.06000
F1608       F  0.03756884  0.64711726  0.28774640    -0.19800
H1609       H  0.03350603  0.68970861  0.31186004     0.15800
F1610       F  0.18147000  0.77571338  0.31878544    -0.23500
H1611       H  0.18475617  0.73437402  0.29489266     0.17600
C1612       C  0.15248076  0.70636103  0.26437361     0.25600
C1613       C  0.16501714  0.69192244  0.25137582    -0.12100
C1614       C  0.14942281  0.64697292  0.24901455    -0.26100
C1615       C  0.12000399  0.61641710  0.25984718     0.36500
C1616       C  0.10772260  0.63100771  0.27299415    -0.27700
F1617       F  0.16799193  0.75012141  0.26613747    -0.19900
H1618       H  0.18694788  0.71607808  0.24309736     0.15800
F1619       F  0.10453775  0.57267068  0.25808615    -0.23600
H1620       H  0.08639324  0.60722653  0.28147704     0.17700
C1621       C  0.99584229  0.83649277  0.41175753    -0.27600
C1622       C  0.97465288  0.81065960  0.42482218     0.06000
C1623       C  0.96276623  0.76603380  0.42482231     0.25600
C1624       C  0.96947836  0.74710182  0.41172910    -0.12100
C1625       C  0.98856379  0.77215837  0.39836521    -0.26000
C1626       C  0.00291229  0.81745743  0.39859341     0.36400
C1627       C  0.96148387  0.82877823  0.43793775     0.06000
F1628       F  0.94377017  0.74042297  0.43742596    -0.19800
H1629       H  0.95879064  0.71231406  0.41193422     0.15800
F1630       F  0.02101950  0.84260445  0.38583019    -0.23500
H1631       H  0.00506397  0.87090099  0.41149309     0.17600
C1632       C  0.99186867  0.86693415  0.44583895     0.25600
C1633       C  0.97846888  0.88197091  0.45859365    -0.12100
C1634       C  0.93451999  0.85930844  0.46367311    -0.26100
C1635       C  0.90408634  0.82162777  0.45542730     0.36500
C1636       C  0.91755731  0.80678182  0.44276255    -0.27700
F1637       F  0.03468968  0.88878143  0.44155616    -0.19900
H1638       H  0.00274454  0.91097536  0.46465166     0.15800
F1639       F  0.86108412  0.79896757  0.45946697    -0.23600
H1640       H  0.89341667  0.77777876  0.43665290     0.17700
C1641       C  0.83970169  0.58752732  0.37129303    -0.27600
C1642       C  0.84337477  0.55542979  0.36288698     0.06000
C1643       C  0.88354899  0.56666894  0.35572025     0.25600
C1644       C  0.91965128  0.60914790  0.35740676    -0.12100
C1645       C  0.91614431  0.64076594  0.36629429    -0.26000
C1646       C  0.87550687  0.62953648  0.37308217     0.36400
C1647       C  0.80456897  0.51081721  0.36171376     0.06000
F1648       F  0.88824953  0.53637609  0.34749475    -0.19800
H1649       H  0.95054718  0.61699713  0.35206466     0.15800
F1650       F  0.86988039  0.65932050  0.38127347    -0.23500
H1651       H  0.80872444  0.58008144  0.37647675     0.17600
C1652       C  0.77991047  0.48974397  0.37499316     0.25600
C1653       C  0.74024384  0.45044533  0.37370425    -0.12100
C1654       C  0.72458715  0.43088136  0.35920620    -0.26100
C1655       C  0.75023534  0.45086185  0.34597227     0.36500
C1656       C  0.78977028  0.49065663  0.34725115    -0.27700
F1657       F  0.79407357  0.50734820  0.38924879    -0.19900
H1658       H  0.72174142  0.43525040  0.38411959     0.15800
F1659       F  0.73631883  0.43305612  0.33173572    -0.23600
H1660       H  0.80798923  0.50653720  0.33686358     0.17700
C1661       C  0.11493109  0.17771036  0.03589963    -0.27600
C1662       C  0.13652615  0.19439200  0.02179522     0.06000
C1663       C  0.12054778  0.16900204  0.00836091     0.25600
C1664       C  0.08246989  0.12785152  0.00900038    -0.12100
C1665       C  0.05989462  0.11151217  0.02305087    -0.26000
C1666       C  0.07695668  0.13664878  0.03658546     0.36400
C1667       C  0.17446737  0.23920318  0.02128403     0.06000
F1668       F  0.14073210  0.18475114  0.99456956    -0.19800
H1669       H  0.07001572  0.10925913  0.99840457     0.15800
F1670       F  0.05727027  0.12157539  0.05049476    -0.23500
H1671       H  0.12738883  0.19685310  0.04639316     0.17600
C1672       C  0.16942867  0.27462598  0.02601202     0.25600
C1673       C  0.20606414  0.31616183  0.02779134    -0.12100
C1674       C  0.24817446  0.32306147  0.02472702    -0.26100
C1675       C  0.25306361  0.28832245  0.01896110     0.36500
C1676       C  0.21622954  0.24644796  0.01730690    -0.27700
F1677       F  0.12908930  0.26862882  0.02933307    -0.19900
H1678       H  0.20166920  0.34277406  0.03199984     0.15800
F1679       F  0.29350411  0.29406296  0.01604192    -0.23600
H1680       H  0.22046740  0.21929738  0.01364622     0.17700
C1681       C  0.32428421  0.53342881  0.11041690    -0.27600
C1682       C  0.29141260  0.49735680  0.10228501     0.06000
C1683       C  0.24788334  0.47759036  0.10757597     0.25600
C1684       C  0.23767653  0.49325014  0.12080223    -0.12100
C1685       C  0.27040645  0.52922330  0.12905929    -0.26000
C1686       C  0.31402507  0.54934945  0.12368213     0.36400
C1687       C  0.30235042  0.47953280  0.08853021     0.06000
F1688       F  0.21490353  0.44352432  0.09979175    -0.19800
H1689       H  0.20374068  0.47724487  0.12448236     0.15800
F1690       F  0.34695273  0.58360750  0.13138906    -0.23500
H1691       H  0.35811581  0.54877542  0.10665945     0.17600
C1692       C  0.32755028  0.50698719  0.07628566     0.25600
C1693       C  0.33496623  0.48886664  0.06299764    -0.12100
C1694       C  0.31664735  0.44317717  0.06162758    -0.26100
C1695       C  0.29260687  0.41595352  0.07407116     0.36500
C1696       C  0.28599023  0.43408443  0.08740247    -0.27700
F1697       F  0.34300723  0.55095351  0.07681230    -0.19900
H1698       H  0.35327199  0.51033272  0.05349819     0.15800
F1699       F  0.27529775  0.37168039  0.07335131    -0.23600
H1700       H  0.26741105  0.41240245  0.09682067     0.17700
C1701       C  0.43304302  0.31790963  0.93421059    -0.27600
C1702       C  0.46340210  0.35940119  0.94013319     0.06000
C1703       C  0.50555574  0.38231059  0.93366094     0.25600
C1704       C  0.51644034  0.36501581  0.92107733    -0.12100
C1705       C  0.48590737  0.32404851  0.91473825    -0.26000
C1706       C  0.44406202  0.30020482  0.92162830     0.36400
C1707       C  0.45152737  0.37905178  0.95305052     0.06000
F1708       F  0.53663944  0.42124954  0.93968685    -0.19800
H1709       H  0.54916408  0.38401657  0.91633267     0.15800
F1710       F  0.41361840  0.26013142  0.91620184    -0.23500
H1711       H  0.40053196  0.29954342  0.93918263     0.17600
C1712       C  0.45937964  0.42237856  0.95192082     0.25600
C1713       C  0.45278093  0.44263353  0.96466444    -0.12100
C1714       C  0.43715366  0.41979141  0.97862961    -0.26100
C1715       C  0.42723820  0.37573128  0.97959613     0.36500
C1716       C  0.43452457  0.35560064  0.96686930    -0.27700
F1717       F  0.47363135  0.44521447  0.93848360    -0.19900
H1718       H  0.45998362  0.47636598  0.96363334     0.15800
F1719       F  0.41289262  0.35299919  0.99304793    -0.23600
H1720       H  0.42838361  0.32224513  0.96796953     0.17700
C1721       C  0.55885155  0.62125339  0.00194759    -0.27600
C1722       C  0.57867957  0.62986120  0.01660702     0.06000
C1723       C  0.55713042  0.59993350  0.02872347     0.25600
C1724       C  0.51777781  0.56098460  0.02591109    -0.12100
C1725       C  0.49976595  0.55115591  0.01099132    -0.26000
C1726       C  0.51987336  0.58212819  0.99910644     0.36400
C1727       C  0.62246115  0.66922723  0.01888730     0.06000
F1728       F  0.57535860  0.60699059  0.04301701    -0.19800
H1729       H  0.50270431  0.53735555  0.03518993     0.15800
F1730       F  0.50207762  0.57429599  0.98471857    -0.23500
H1731       H  0.57415043  0.64451054  0.99258075     0.17600
C1732       C  0.65671447  0.67871072  0.00847716     0.25600
C1733       C  0.69715456  0.71714212  0.01007272    -0.12100
C1734       C  0.70452648  0.74706573  0.02209186    -0.26100
C1735       C  0.67066916  0.73648874  0.03291127     0.36500
C1736       C  0.63009420  0.69801097  0.03124697    -0.27700
F1737       F  0.65112664  0.65070691  0.99674538    -0.19900
H1738       H  0.72249303  0.72369554  0.00167045     0.15800
F1739       F  0.67617996  0.76353400  0.04494600    -0.23600
H1740       H  0.60417728  0.69128994  0.03941385     0.17700
C1741       C  0.97891054  0.49654529  0.58439078    -0.27600
C1742       C  0.00971628  0.48434149  0.58901681     0.06000
C1743       C  0.01249779  0.45154903  0.58062122     0.25600
C1744       C  0.98318632  0.42942867  0.56864860    -0.12100
C1745       C  0.95071711  0.43975039  0.56449580    -0.26000
C1746       C  0.94975473  0.47467783  0.57216040     0.36400
C1747       C  0.03611977  0.50244568  0.60334528     0.06000
F1748       F  0.04325717  0.44031337  0.58415036    -0.19800
H1749       H  0.98571877  0.40361875  0.56272461     0.15800
F1750       F  0.91949681  0.48636167  0.56838838    -0.23500
H1751       H  0.97611860  0.52169209  0.59067670     0.17600
C1752       C  0.06031025  0.54789150  0.60638321     0.25600
C1753       C  0.08579257  0.56346778  0.61988217    -0.12100
C1754       C  0.08772373  0.53402159  0.63050388    -0.26100
C1755       C  0.06231191  0.48853111  0.62758810     0.36500
C1756       C  0.03690200  0.47318946  0.61423907    -0.27700
F1757       F  0.06057757  0.57722278  0.59608047    -0.19900
H1758       H  0.10495993  0.59860008  0.62180424     0.15800
F1759       F  0.06149190  0.45851619  0.63770676    -0.23600
H1760       H  0.01754144  0.43801194  0.61241884     0.17700
C1761       C  0.91315401  0.17773332  0.52793345    -0.27600
C1762       C  0.87409958  0.17922676  0.52679647     0.06000
C1763       C  0.83441804  0.14013362  0.52398355     0.25600
C1764       C  0.83391247  0.10009661  0.52277103    -0.12100
C1765       C  0.87281204  0.09856210  0.52458060    -0.26000
C1766       C  0.91256645  0.13779474  0.52696212     0.36400
C1767       C  0.87498678  0.22122220  0.52965378     0.06000
F1768       F  0.79599503  0.14036949  0.52319099    -0.19800
H1769       H  0.80295125  0.07009446  0.52099185     0.15800
F1770       F  0.95090224  0.13750986  0.52825656    -0.23500
H1771       H  0.94413998  0.20759353  0.52985798     0.17600
C1772       C  0.89450098  0.24502600  0.54319178     0.25600
C1773       C  0.89619686  0.28489949  0.54593991    -0.12100
C1774       C  0.87876361  0.30233552  0.53524412    -0.26100
C1775       C  0.85887691  0.27832960  0.52166925     0.36500
C1776       C  0.85693971  0.23799632  0.51896805    -0.27700
F1777       F  0.91151867  0.22940999  0.55391576    -0.19900
H1778       H  0.91139657  0.30217920  0.55655008     0.15800
F1779       F  0.84245316  0.29418280  0.51081824    -0.23600
H1780       H  0.84212822  0.22024769  0.50839064     0.17700
C1781       C  0.80374664  0.56921119  0.52023488    -0.27600
C1782       C  0.84455280  0.60365848  0.52514660     0.06000
C1783       C  0.87787881  0.59438236  0.52915252     0.25600
C1784       C  0.87068338  0.55154458  0.52773884    -0.12100
C1785       C  0.83050959  0.51760492  0.52207373    -0.26000
C1786       C  0.79689164  0.52678139  0.51848012     0.36400
C1787       C  0.85258043  0.64929953  0.52503499     0.06000
F1788       F  0.91804762  0.62703523  0.53362245    -0.19800
H1789       H  0.89717802  0.54531867  0.53043918     0.15800
F1790       F  0.75738571  0.49482525  0.51317828    -0.23500
H1791       H  0.77730730  0.57541523  0.51740546     0.17600
C1792       C  0.84133841  0.66535259  0.51195089     0.25600
C1793       C  0.84804535  0.70792096  0.51180489    -0.12100
C1794       C  0.86620077  0.73574022  0.52465949    -0.26100
C1795       C  0.87780485  0.71980516  0.53777102     0.36500
C1796       C  0.87104455  0.67693766  0.53789736    -0.27700
F1797       F  0.82442260  0.64007256  0.49914017    -0.19900
H1798       H  0.83892263  0.71905131  0.50150328     0.15800
F1799       F  0.89450286  0.74497448  0.55061180    -0.23600
H1800       H  0.87944284  0.66501547  0.54816566     0.17700
C1801       C  0.76112301  0.34439020  0.46632534    -0.27600
C1802       C  0.72812332  0.35260317  0.46106763     0.06000
C1803       C  0.71401199  0.37538795  0.47066159     0.25600
C1804       C  0.73460922  0.39217339  0.48480540    -0.12100
C1805       C  0.76924182  0.38608452  0.48976377    -0.26000
C1806       C  0.78162255  0.36096456  0.48058543     0.36400
C1807       C  0.70928098  0.33882603  0.44542118     0.06000
F1808       F  0.68057178  0.38183443  0.46625341    -0.19800
H1809       H  0.72399929  0.41076516  0.49177585     0.15800
F1810       F  0.81527462  0.35477857  0.48488673    -0.23500
H1811       H  0.77218805  0.32664749  0.45910604     0.17600
C1812       C  0.70871028  0.36960868  0.43516869     0.25600
C1813       C  0.68649458  0.35587252  0.42112656    -0.12100
C1814       C  0.66487185  0.31126250  0.41689888    -0.26100
C1815       C  0.66837480  0.28092728  0.42667375     0.36500
C1816       C  0.69028305  0.29472500  0.44085477    -0.27700
F1817       F  0.72930702  0.41300282  0.43882362    -0.19900
H1818       H  0.68566090  0.38023856  0.41365241     0.15800
F1819       F  0.64913081  0.23771074  0.42291657    -0.23600
H1820       H  0.69102976  0.27068836  0.44852875     0.17700
C1821       C  0.53128823  0.57283190  0.87950524    -0.27600
C1822       C  0.53610294  0.56050204  0.86450088     0.06000
C1823       C  0.54117167  0.58857554  0.85207099     0.25600
C1824       C  0.54305794  0.62880630  0.85475027    -0.12100
C1825       C  0.54067145  0.64211188  0.86985706    -0.26000
C1826       C  0.53393957  0.61333900  0.88221344     0.36400
C1827       C  0.53817959  0.51962477  0.86209929     0.06000
F1828       F  0.54682116  0.57835556  0.83744979    -0.19800
H1829       H  0.54847847  0.65049362  0.84505232     0.15800
F1830       F  0.53010178  0.62439295  0.89692528    -0.23500
H1831       H  0.52626123  0.55131618  0.88922032     0.17600
C1832       C  0.56567705  0.51075990  0.87138941     0.25600
C1833       C  0.56746129  0.47226038  0.86927930    -0.12100
C1834       C  0.54197006  0.44142771  0.85784556    -0.26100
C1835       C  0.51492477  0.45071923  0.84834821     0.36500
C1836       C  0.51310286  0.48938145  0.85051304    -0.27700
F1837       F  0.59155099  0.53975744  0.88238147    -0.19900
H1838       H  0.58894612  0.46665577  0.87673686     0.15800
F1839       F  0.48965800  0.42233128  0.83712858    -0.23600
H1840       H  0.49148142  0.49536143  0.84326768     0.17700
C1841       C  0.62546535  0.77417003  0.92853035    -0.27600
C1842       C  0.66393364  0.81506901  0.92673660     0.06000
C1843       C  0.67190655  0.83679599  0.91237931     0.25600
C1844       C  0.64258224  0.81717102  0.90002903    -0.12100
C1845       C  0.60548126  0.77522216  0.90166061    -0.26000
C1846       C  0.59669647  0.75427845  0.91613418     0.36400
C1847       C  0.69668515  0.83274921  0.93953787     0.06000
F1848       F  0.70946854  0.87544855  0.90993145    -0.19800
H1849       H  0.65029686  0.83357619  0.88891201     0.15800
F1850       F  0.56060286  0.71414869  0.91821711    -0.23500
H1851       H  0.61824191  0.75700938  0.93949488     0.17600
C1852       C  0.71517670  0.87647608  0.94466593     0.25600
C1853       C  0.74563700  0.89188093  0.95682968    -0.12100
C1854       C  0.75814558  0.86403610  0.96426656    -0.26100
C1855       C  0.73939128  0.82018414  0.95908236     0.36500
C1856       C  0.70923764  0.80500867  0.94688861    -0.27700
F1857       F  0.70266944  0.90390873  0.93832359    -0.19900
H1858       H  0.75897841  0.92562742  0.96055392     0.15800
F1859       F  0.74933970  0.79140565  0.96591594    -0.23600
H1860       H  0.69559165  0.77122645  0.94314509     0.17700
C1861       C  0.45256820  0.75231809  0.78803582    -0.27600
C1862       C  0.42273072  0.70696679  0.78791733     0.06000
C1863       C  0.42302524  0.68112592  0.80035778     0.25600
C1864       C  0.45077269  0.70104032  0.81307598    -0.12100
C1865       C  0.47802797  0.74691469  0.81365330    -0.26000
C1866       C  0.47963406  0.77221537  0.80075026     0.36400
C1867       C  0.39055223  0.68794906  0.77504970     0.06000
F1868       F  0.39459638  0.63716708  0.80070840    -0.19800
H1869       H  0.44890416  0.68090606  0.82286583     0.15800
F1870       F  0.50650714  0.81652520  0.80056138    -0.23500
H1871       H  0.45408360  0.77272232  0.77838089     0.17600
C1872       C  0.36712073  0.70865476  0.77016352     0.25600
C1873       C  0.33919562  0.69284029  0.75740694    -0.12100
C1874       C  0.33345145  0.65575167  0.74922540    -0.26100
C1875       C  0.35596504  0.63418335  0.75439615     0.36500
C1876       C  0.38421418  0.65027182  0.76716962    -0.27700
F1877       F  0.37094179  0.74417667  0.77780111    -0.19900
H1878       H  0.32201964  0.70989536  0.75394421     0.15800
F1879       F  0.35187930  0.59837714  0.74690405    -0.23600
H1880       H  0.40212851  0.63397028  0.77062930     0.17700
C1881       C  0.50266790  0.92593129  0.84166231    -0.27600
C1882       C  0.53613841  0.95715544  0.85105536     0.06000
C1883       C  0.56302904  0.94534689  0.85938749     0.25600
C1884       C  0.55751755  0.90322659  0.85777035    -0.12100
C1885       C  0.52518313  0.87251481  0.84781968    -0.26000
C1886       C  0.49700547  0.88396805  0.84006304     0.36400
C1887       C  0.54250264  0.00188187  0.85196116     0.06000
F1888       F  0.59567104  0.97506410  0.86857060    -0.19800
H1889       H  0.57946539  0.89515636  0.86388845     0.15800
F1890       F  0.46378307  0.85466251  0.83095268    -0.23500
H1891       H  0.48090082  0.93419056  0.83549964     0.17600
C1892       C  0.54787977  0.02619553  0.83840252     0.25600
C1893       C  0.55026990  0.06701016  0.83921243    -0.12100
C1894       C  0.54760092  0.08421442  0.85353675    -0.26100
C1895       C  0.54329109  0.06040100  0.86712387     0.36500
C1896       C  0.54074128  0.01946376  0.86630607    -0.27700
F1897       F  0.55063251  0.01033669  0.82439371    -0.19900
H1898       H  0.55396488  0.08512363  0.82863688     0.15800
F1899       F  0.53910419  0.07557477  0.88107259    -0.23600
H1900       H  0.53591761  0.00079087  0.87681994     0.17700
C1901       C  0.89530100  0.27867262  0.66786452    -0.27600
C1902       C  0.90864848  0.29387445  0.68299052     0.06000
C1903       C  0.88118388  0.26990170  0.69539428     0.25600
C1904       C  0.84210737  0.23034433  0.69266762    -0.12100
C1905       C  0.83001743  0.21403788  0.67755909    -0.26000
C1906       C  0.85649801  0.23928040  0.66513310     0.36400
C1907       C  0.95161777  0.33424501  0.68558702     0.06000
F1908       F  0.89323511  0.28351517  0.71017509    -0.19800
H1909       H  0.82238549  0.21149181  0.70242026     0.15800
F1910       F  0.84509389  0.22575205  0.65029672    -0.23500
H1911       H  0.91532069  0.29720582  0.65811340     0.17600
C1912       C  0.98990730  0.33892348  0.67869101     0.25600
C1913       C  0.02975721  0.37818351  0.68020292    -0.12100
C1914       C  0.03255822  0.41353613  0.68876811    -0.26100
C1915       C  0.99450406  0.40808823  0.69622519     0.36500
C1916       C  0.95446634  0.36890461  0.69453344    -0.27700
F1917       F  0.98884685  0.30534310  0.67055921    -0.19900
H1918       H  0.05851755  0.38091199  0.67459022     0.15800
F1919       F  0.99542607  0.44103681  0.70470161    -0.23600
H1920       H  0.92536511  0.36605538  0.69990464     0.17700
C1921       C  0.79667223  0.03441486  0.59382299    -0.27600
C1922       C  0.78869710  0.01393688  0.60836773     0.06000
C1923       C  0.79045930  0.97484887  0.60982802     0.25600
C1924       C  0.80145018  0.95769316  0.59703224    -0.12100
C1925       C  0.81160125  0.97970943  0.58275646    -0.26000
C1926       C  0.80854714  0.01789946  0.58120569     0.36400
C1927       C  0.78157553  0.03560113  0.62194272     0.06000
F1928       F  0.78376664  0.95453376  0.62373523    -0.19800
H1929       H  0.80369742  0.92819545  0.59840678     0.15800
F1930       F  0.81695546  0.03920951  0.56743699    -0.23500
H1931       H  0.79454816  0.06394119  0.59230206     0.17600
C1932       C  0.81030728  0.08057629  0.62458622     0.25600
C1933       C  0.80318486  0.10199188  0.63680221    -0.12100
C1934       C  0.76747470  0.07933827  0.64691330    -0.26100
C1935       C  0.73881458  0.03400036  0.64443863     0.36500
C1936       C  0.74597307  0.01242332  0.63205717    -0.27700
F1937       F  0.84599870  0.10392314  0.61547436    -0.19900
H1938       H  0.82618180  0.13670796  0.63831337     0.15800
F1939       F  0.70411593  0.01042205  0.65393225    -0.23600
H1940       H  0.72330682  0.97776298  0.63022050     0.17700
C1941       C  0.51083578  0.92086803  0.70435620    -0.27600
C1942       C  0.50444662  0.90161286  0.68976173     0.06000
C1943       C  0.53620374  0.92286283  0.67821018     0.25600
C1944       C  0.57355128  0.96360843  0.68127039    -0.12100
C1945       C  0.57956839  0.98347057  0.69588069    -0.26000
C1946       C  0.54779115  0.96114532  0.70746600     0.36400
C1947       C  0.46385259  0.85962088  0.68704111     0.06000
F1948       F  0.53039771  0.90496364  0.66390426    -0.19800
H1949       H  0.59723900  0.97995444  0.67212824     0.15800
F1950       F  0.55196927  0.97788953  0.72189517    -0.23500
H1951       H  0.48686558  0.90452107  0.71343525     0.17600
C1952       C  0.46519143  0.82129575  0.68349657     0.25600
C1953       C  0.42649123  0.78058856  0.68353813    -0.12100
C1954       C  0.38628644  0.77772570  0.68729678    -0.26100
C1955       C  0.38479929  0.81632643  0.69012141     0.36500
C1956       C  0.42335750  0.85691576  0.68999563    -0.27700
F1957       F  0.50403993  0.82292719  0.68093629    -0.19900
H1958       H  0.42813821  0.75111176  0.68123349     0.15800
F1959       F  0.34610788  0.81480256  0.69295408    -0.23600
H1960       H  0.42186927  0.88630934  0.69264520     0.17700
C1961       C  0.65140919  0.21078582  0.77436030    -0.27600
C1962       C  0.61926108  0.17234478  0.76711907     0.06000
C1963       C  0.57597157  0.15174001  0.77269111     0.25600
C1964       C  0.56571116  0.16806700  0.78572329    -0.12100
C1965       C  0.59821256  0.20543265  0.79346550    -0.26000
C1966       C  0.64106069  0.22752706  0.78733454     0.36400
C1967       C  0.63113272  0.15265473  0.75421728     0.06000
F1968       F  0.54351858  0.11563360  0.76557222    -0.19800
H1969       H  0.53220152  0.15086287  0.78986660     0.15800
F1970       F  0.67340115  0.26441318  0.79408919    -0.23500
H1971       H  0.68495919  0.22715443  0.77025683     0.17600
C1972       C  0.65551265  0.17796887  0.74146888     0.25600
C1973       C  0.66425192  0.15798251  0.72904745    -0.12100
C1974       C  0.64832902  0.11250654  0.72910431    -0.26100
C1975       C  0.62565335  0.08765326  0.74218881     0.36500
C1976       C  0.61741046  0.10766437  0.75460622    -0.27700
F1977       F  0.66885378  0.22147355  0.74065241    -0.19900
H1978       H  0.68153094  0.17765175  0.71906421     0.15800
F1979       F  0.61110983  0.04385843  0.74296801    -0.23600
H1980       H  0.59976348  0.08779693  0.76451219     0.17700
loop_ 
_geom_bond_atom_site_label_1 
_geom_bond_atom_site_label_2 
_geom_bond_distance 
_geom_bond_site_symmetry_2 
_ccdc_geom_bond_type 
C1            N2   1.351       .  A
C1            N6   1.359       .  A
C1         C1974   1.475       .  S
N2            C3   1.352       .  A
C3            N4   1.360       .  A
C3         C1945   1.483   1_545  S
N4            C5   1.363       .  A
C5            N6   1.363       .  A
C5           C11   1.471       .  S
C7            N8   1.355       .  A
C7           N12   1.360       .  A
C7         C1934   1.490       .  S
N8            C9   1.353       .  A
C9           N10   1.359       .  A
C9         C1905   1.481       .  S
N10          C11   1.363       .  A
C11          N12   1.364       .  A
C13          N14   1.352       .  A
C13          N18   1.360       .  A
C13        C1865   1.480       .  S
N14          C15   1.352       .  A
C15          N16   1.358       .  A
C15        C1885   1.476       .  S
N16          C17   1.361       .  A
C17          N18   1.365       .  A
C17          C21   1.472       .  S
C19          N20   1.361       .  A
C19          N24   1.358       .  A
C19        C1845   1.480       .  S
N20          C21   1.363       .  A
C21          N22   1.358       .  A
N22          C23   1.357       .  A
C23          N24   1.358       .  A
C23        C1825   1.479       .  S
C25          N26   1.356       .  A
C25          N30   1.358       .  A
C25        C1805   1.477       .  S
N26          C27   1.356       .  A
C27          N28   1.358       .  A
C27        C1785   1.476       .  S
N28          C29   1.359       .  A
C29          N30   1.360       .  A
C29          C35   1.467       .  S
C31          N32   1.355       .  A
C31          N36   1.359       .  A
C31        C1745   1.485       .  S
N32          C33   1.355       .  A
C33          N34   1.358       .  A
C33        C1774   1.484       .  S
N34          C35   1.361       .  A
C35          N36   1.363       .  A
C37          N38   1.356   1_556  A
C37          N42   1.356       .  A
C37        C1714   1.473       .  S
N38          C39   1.359       .  A
C39          N40   1.358       .  A
C39          C45   1.464       .  S
N40          C41   1.357       .  A
C41          N42   1.357   1_554  A
C41        C1725   1.469       .  S
C43          N44   1.360       .  A
C43          N48   1.354       .  A
C43        C1694   1.475       .  S
N44          C45   1.362       .  A
C45          N46   1.358       .  A
N46          C47   1.354       .  A
C47          N48   1.353       .  A
C47        C1674   1.467       .  S
C49          N50   1.358   1_655  A
C49          N54   1.353       .  A
C49        C1625   1.479       .  S
N50          C51   1.364       .  A
C51          N52   1.361   1_455  A
C51          C57   1.469       .  S
N52          C53   1.359       .  A
C53          N54   1.354       .  A
C53        C1645   1.478       .  S
C55          N56   1.361       .  A
C55          N60   1.357       .  A
C55        C1605   1.485       .  S
N56          C57   1.365       .  A
C57          N58   1.359       .  A
N58          C59   1.355       .  A
C59          N60   1.354       .  A
C59        C1594   1.481       .  S
C61          N62   1.366       .  A
C61          N66   1.355       .  A
C61        C1554   1.495       .  S
N62          C63   1.368       .  A
C63          N64   1.360       .  A
C63          C69   1.476       .  S
N64          C65   1.356       .  A
C65          N66   1.352       .  A
C65        C1574   1.479       .  S
C67          N68   1.360       .  A
C67          N72   1.356       .  A
C67        C1505   1.489       .  S
N68          C69   1.365       .  A
C69          N70   1.361       .  A
N70          C71   1.361       .  A
C71          N72   1.357       .  A
C71        C1525   1.488   1_545  S
C73          N74   1.354       .  A
C73          N78   1.363       .  A
C73        C1494   1.489       .  S
N74          C75   1.353   1_455  A
C75          N76   1.354   1_655  A
C75        C1474   1.476       .  S
N76          C77   1.360       .  A
C77          N78   1.364       .  A
C77          C81   1.470       .  S
C79          N80   1.356       .  A
C79          N84   1.355       .  A
C79        C1445   1.481       .  S
N80          C81   1.362       .  A
C81          N82   1.363       .  A
N82          C83   1.362       .  A
C83          N84   1.358       .  A
C83        C1425   1.489       .  S
C85          N86   1.356       .  A
C85          N90   1.357       .  A
C85        C1405   1.479       .  S
N86          C87   1.354       .  A
C87          N88   1.358       .  A
C87        C1394   1.482       .  S
N88          C89   1.361       .  A
C89          N90   1.358       .  A
C89          C93   1.465       .  S
C91          N92   1.356       .  A
C91          N96   1.354       .  A
C91        C1354   1.477       .  S
N92          C93   1.359       .  A
C93          N94   1.362       .  A
N94          C95   1.359       .  A
C95          N96   1.354       .  A
C95        C1365   1.477       .  S
C97          N98   1.357       .  A
C97         N102   1.361       .  A
C97        C1325   1.486       .  S
N98          C99   1.358       .  A
C99         N100   1.357       .  A
C99        C1305   1.473       .  S
N100        C101   1.358       .  A
C101        N102   1.365       .  A
C101        C105   1.472       .  S
C103        N104   1.364       .  A
C103        N108   1.354       .  A
C103       C1265   1.490       .  S
N104        C105   1.368       .  A
C105        N106   1.360       .  A
N106        C107   1.355       .  A
C107        N108   1.353       .  A
C107       C1285   1.475       .  S
C109        N110   1.357   1_556  A
C109        N114   1.354   1_556  A
C109       C1225   1.477   1_565  S
N110        C111   1.363       .  A
C111        N112   1.361       .  A
C111        C117   1.470       .  S
N112        C113   1.360       .  A
C113        N114   1.355       .  A
C113       C1245   1.484       .  S
C115        N116   1.362       .  A
C115        N120   1.359       .  A
C115       C1205   1.488       .  S
N116        C117   1.364       .  A
C117        N118   1.358       .  A
N118        C119   1.355       .  A
C119        N120   1.357       .  A
C119       C1185   1.476       .  S
C121        N122   1.354       .  A
C121        N126   1.360       .  A
C121       C1145   1.489       .  S
N122        C123   1.354       .  A
C123        N124   1.362       .  A
C123       C1165   1.482       .  S
N124        C125   1.363       .  A
C125        N126   1.366       .  A
C125        C131   1.479       .  S
C127        N128   1.357   1_455  A
C127        N132   1.367       .  A
C127       C1125   1.500       .  S
N128        C129   1.354       .  A
C129        N130   1.355       .  A
C129       C1105   1.481       .  S
N130        C131   1.360   1_655  A
C131        N132   1.370       .  A
C133        N134   1.358       .  A
C133        N138   1.354       .  A
C133       C1065   1.476       .  S
N134        C135   1.362       .  A
C135        N136   1.361       .  A
C135        C141   1.468       .  S
N136        C137   1.358       .  A
C137        N138   1.356       .  A
C137       C1094   1.480       .  S
C139        N140   1.360       .  A
C139        N144   1.353   1_545  A
C139       C1025   1.483       .  S
N140        C141   1.363       .  A
C141        N142   1.361       .  A
N142        C143   1.357   1_545  A
C143        N144   1.353       .  A
C143       C1054   1.468       .  S
C145        N146   1.355       .  A
C145        N150   1.358       .  A
C145       C1005   1.477       .  S
N146        C147   1.355       .  A
C147        N148   1.359       .  A
C147        C985   1.478       .  S
N148        C149   1.360       .  A
C149        N150   1.362       .  A
C149        C155   1.469       .  S
C151        N152   1.356       .  A
C151        N156   1.359       .  A
C151        C965   1.477       .  S
N152        C153   1.356       .  A
C153        N154   1.358       .  A
C153        C945   1.477       .  S
N154        C155   1.359       .  A
C155        N156   1.361       .  A
C157        N158   1.356       .  A
C157        N162   1.355       .  A
C157        C925   1.488       .  S
N158        C159   1.361       .  A
C159        N160   1.363       .  A
C159        C165   1.469       .  S
N160        C161   1.361       .  A
C161        N162   1.356       .  A
C161        C905   1.484       .  S
C163        N164   1.361       .  A
C163        N168   1.355   1_545  A
C163        C885   1.483       .  S
N164        C165   1.363       .  A
C165        N166   1.361       .  A
N166        C167   1.357   1_545  A
C167        N168   1.354       .  A
C167        C865   1.481       .  S
C169        N170   1.353       .  A
C169        N174   1.360       .  A
C169        C834   1.480       .  S
N170        C171   1.351       .  A
C171        N172   1.357       .  A
C171        C845   1.478       .  S
N172        C173   1.364       .  A
C173        N174   1.363       .  A
C173        C179   1.469       .  S
C175        N176   1.353       .  A
C175        N180   1.356       .  A
C175        C785   1.479       .  S
N176        C177   1.355       .  A
C177        N178   1.362       .  A
C177        C805   1.487       .  S
N178        C179   1.364       .  A
C179        N180   1.359       .  A
C181        N182   1.355       .  A
C181        N186   1.364       .  A
C181        C754   1.488       .  S
N182        C183   1.355       .  A
C183        N184   1.357       .  A
C183        C765   1.484       .  S
N184        C185   1.360       .  A
C185        N186   1.368       .  A
C185        C189   1.476       .  S
C187        N188   1.361       .  A
C187        N192   1.352       .  A
C187        C725   1.489       .  S
N188        C189   1.368       .  A
C189        N190   1.363       .  A
N190        C191   1.360       .  A
C191        N192   1.353       .  A
C191        C705   1.481       .  S
C193        N194   1.357       .  A
C193        N198   1.361   1_556  A
C193        C694   1.484       .  S
N194        C195   1.356   1_556  A
C195        N196   1.357       .  A
C195        C665   1.478       .  S
N196        C197   1.359       .  A
C197        N198   1.364       .  A
C197        C203   1.470       .  S
C199        N200   1.352       .  A
C199        N204   1.360       .  A
C199        C625   1.474       .  S
N200        C201   1.353       .  A
C201        N202   1.357       .  A
C201        C645   1.473       .  S
N202        C203   1.359       .  A
C203        N204   1.364       .  A
C205        N206   1.351       .  A
C205        N210   1.360       .  A
C205        C585   1.483       .  S
N206        C207   1.351       .  A
C207        N208   1.358       .  A
C207        C614   1.478       .  S
N208        C209   1.363       .  A
C209        N210   1.364       .  A
C209        C213   1.470       .  S
C211        N212   1.358       .  A
C211        N216   1.360   1_455  A
C211        C554   1.486   1_455  S
N212        C213   1.359       .  A
C213        N214   1.359       .  A
N214        C215   1.359   1_455  A
C215        N216   1.361       .  A
C215        C574   1.486       .  S
O217        C228   1.290       .  A
O217       Eu253   2.444       .  S
O218        C229   1.288       .  A
O218       Eu252   2.442       .  S
O219        C230   1.290       .  A
O219       Eu225   2.447       .  S
O220        C231   1.292       .  A
O220       Eu225   2.466       .  S
O221        C231   1.293       .  A
O221       Eu255   2.459       .  S
O222        C230   1.293       .  A
O222       Eu254   2.468       .  S
O223        C229   1.290       .  A
O223       Eu225   2.445       .  S
O224        C228   1.290       .  A
O224       Eu225   2.453       .  S
Eu225       O235   2.349       .  S
Eu225       O227   2.348       .  S
Eu225       O226   2.346       .  S
Eu225       O233   2.355       .  S
O226       Eu255   2.342       .  S
O226       Eu252   2.343       .  S
O227       Eu253   2.347       .  S
O227       Eu254   2.347       .  S
C228       C1965   1.482       .  S
C229       C1465   1.474       .  S
C230       C1345   1.484       .  S
C231        C565   1.489       .  S
H232        O233   0.966       .  S
O233       Eu254   2.359       .  S
O233       Eu252   2.356       .  S
H234        O235   0.966       .  S
O235       Eu253   2.355       .  S
O235       Eu255   2.357       .  S
O236        C259   1.290       .  A
O236       Eu252   2.445       .  S
O237        C260   1.291       .  A
O237       Eu253   2.461       .  S
O238        C261   1.295       .  A
O238       Eu254   2.478       .  S
O239        C262   1.293       .  A
O239       Eu255   2.466       .  S
O240        C263   1.290       .  A
O240       Eu255   2.452       .  S
O241        C264   1.296       .  A
O241       Eu254   2.481       .  S
O242        C265   1.290       .  A
O242       Eu256   2.455       .  S
O243        C266   1.293       .  A
O243       Eu256   2.462       .  S
O244        C265   1.291       .  A
O244       Eu254   2.454       .  S
O245        C266   1.290       .  A
O245       Eu255   2.451       .  S
O246        C261   1.291       .  A
O246       Eu252   2.449       .  S
O247        C264   1.288       .  A
O247       Eu253   2.443       .  S
O248        C263   1.289       .  A
O248       Eu253   2.445       .  S
O249        C262   1.292       .  A
O249       Eu252   2.462       .  S
O250        C259   1.291       .  A
O250       Eu256   2.460       .  S
O251        C260   1.293       .  A
O251       Eu256   2.464       .  S
Eu252       O270   2.348       .  S
Eu252       O258   2.343       .  S
Eu253       O257   2.348       .  S
Eu253       O268   2.354       .  S
Eu254       O268   2.361       .  S
Eu254       O258   2.351       .  S
Eu255       O257   2.354       .  S
Eu255       O270   2.354       .  S
Eu256       O257   2.349       .  S
Eu256       O268   2.357       .  S
Eu256       O270   2.354       .  S
Eu256       O258   2.349       .  S
C259       C1705   1.486       .  S
C260       C1434   1.486       .  S
C261       C1834   1.493       .  S
C262        C685   1.492       .  S
C263       C1894   1.468       .  S
C264        C934   1.481       .  S
C265        C605   1.470       .  S
C266       C1234   1.488       .  S
H267        O268   0.966       .  S
H269        O270   0.966       .  S
O271        C282   1.293       .  A
O271       Eu307   2.467   1_556  S
O272        C283   1.294       .  A
O272       Eu306   2.476       .  S
O273        C284   1.291       .  A
O273       Eu279   2.458       .  S
O274        C285   1.291       .  A
O274       Eu279   2.452   1_546  S
O275        C285   1.293       .  A
O275       Eu309   2.473   1_546  S
O276        C284   1.291       .  A
O276       Eu308   2.453       .  S
O277        C283   1.292       .  A
O277       Eu279   2.458   1_545  S
O278        C282   1.292       .  A
O278       Eu279   2.463   1_556  S
Eu279       O289   2.358   1_554  S
Eu279       O281   2.348       .  S
Eu279       O280   2.348   1_565  S
Eu279       O287   2.360       .  S
O280       Eu309   2.351   1_545  S
O280       Eu306   2.353       .  S
O281       Eu307   2.346       .  S
O281       Eu308   2.348       .  S
C282       C1854   1.494       .  S
C283        C674   1.490       .  S
C284       C1194   1.483       .  S
C285        C545   1.492       .  S
H286        O287   0.966       .  S
O287       Eu308   2.363       .  S
O287       Eu306   2.361   1_565  S
H288        O289   0.966       .  S
O289       Eu307   2.350   1_556  S
O289       Eu309   2.355   1_556  S
O290        C313   1.294   1_545  A
O290       Eu306   2.477       .  S
O291        C314   1.289       .  A
O291       Eu307   2.443       .  S
O292        C315   1.290       .  A
O292       Eu308   2.448       .  S
O293        C316   1.290       .  A
O293       Eu309   2.448   1_445  S
O294        C317   1.294       .  A
O294       Eu309   2.472   1_556  S
O295        C318   1.292       .  A
O295       Eu308   2.462       .  S
O296        C319   1.294       .  A
O296       Eu310   2.471       .  S
O297        C320   1.293   1_655  A
O297       Eu310   2.471       .  S
O298        C319   1.292       .  A
O298       Eu308   2.466       .  S
O299        C320   1.292       .  A
O299       Eu309   2.457   1_455  S
O300        C315   1.293   1_545  A
O300       Eu306   2.469       .  S
O301        C318   1.291       .  A
O301       Eu307   2.450       .  S
O302        C317   1.291       .  A
O302       Eu307   2.457   1_556  S
O303        C316   1.292   1_655  A
O303       Eu306   2.459       .  S
O304        C313   1.290       .  A
O304       Eu310   2.453       .  S
O305        C314   1.290       .  A
O305       Eu310   2.449       .  S
Eu306       O324   2.361   1_545  S
Eu306       O312   2.350   1_545  S
Eu307       O311   2.350       .  S
Eu307       O322   2.359       .  S
Eu308       O322   2.348       .  S
Eu308       O312   2.344       .  S
Eu309       O311   2.345       .  S
Eu309       O324   2.368       .  S
Eu310       O311   2.353       .  S
Eu310       O322   2.353       .  S
Eu310       O324   2.359       .  S
Eu310       O312   2.343       .  S
C313       C1545   1.480       .  S
C314        C654   1.476       .  S
C315       C1034   1.481       .  S
C316       C1665   1.478       .  S
C317       C1454   1.491       .  S
C318       C1734   1.488       .  S
C319        C734   1.490       .  S
C320       C1254   1.485       .  S
H321        O322   0.966       .  S
H323        O324   0.966       .  S
O325        C336   1.292       .  A
O325       Eu361   2.454       .  S
O326        C337   1.293       .  A
O326       Eu360   2.464       .  S
O327        C338   1.287       .  A
O327       Eu333   2.436       .  S
O328        C339   1.288       .  A
O328       Eu333   2.443       .  S
O329        C339   1.292       .  A
O329       Eu363   2.462       .  S
O330        C338   1.292       .  A
O330       Eu362   2.464       .  S
O331        C337   1.289       .  A
O331       Eu333   2.446       .  S
O332        C336   1.290       .  A
O332       Eu333   2.456       .  S
Eu333       O343   2.345       .  S
Eu333       O335   2.349       .  S
Eu333       O334   2.347       .  S
Eu333       O341   2.350       .  S
O334       Eu363   2.348       .  S
O334       Eu360   2.353       .  S
O335       Eu361   2.351       .  S
O335       Eu362   2.346       .  S
C336       C1814   1.482       .  S
C337        C954   1.484       .  S
C338        C825   1.479       .  S
C339       C1114   1.479       .  S
H340        O341   0.966       .  S
O341       Eu362   2.346       .  S
O341       Eu360   2.358       .  S
H342        O343   0.966       .  S
O343       Eu361   2.356       .  S
O343       Eu363   2.351       .  S
O344        C367   1.295       .  A
O344       Eu360   2.475       .  S
O345        C368   1.292       .  A
O345       Eu361   2.460       .  S
O346        C369   1.291       .  A
O346       Eu362   2.457       .  S
O347        C370   1.289       .  A
O347       Eu363   2.445       .  S
O348        C371   1.290       .  A
O348       Eu363   2.452       .  S
O349        C372   1.291       .  A
O349       Eu362   2.457       .  S
O350        C373   1.292       .  A
O350       Eu364   2.464       .  S
O351        C374   1.291       .  A
O351       Eu364   2.456       .  S
O352        C373   1.289       .  A
O352       Eu362   2.441       .  S
O353        C374   1.293       .  A
O353       Eu363   2.472       .  S
O354        C369   1.293       .  A
O354       Eu360   2.466       .  S
O355        C372   1.295       .  A
O355       Eu361   2.479       .  S
O356        C371   1.292       .  A
O356       Eu361   2.457       .  S
O357        C370   1.294       .  A
O357       Eu360   2.472       .  S
O358        C367   1.291       .  A
O358       Eu364   2.455       .  S
O359        C368   1.291       .  A
O359       Eu364   2.454       .  S
Eu360       O378   2.353       .  S
Eu360       O366   2.351       .  S
Eu361       O365   2.357       .  S
Eu361       O376   2.354       .  S
Eu362       O376   2.355       .  S
Eu362       O366   2.355       .  S
Eu363       O365   2.352       .  S
Eu363       O378   2.350       .  S
Eu364       O365   2.352       .  S
Eu364       O376   2.355       .  S
Eu364       O378   2.353       .  S
Eu364       O366   2.352       .  S
C367       C1514   1.492       .  S
C368        C994   1.483       .  S
C369       C1585   1.482       .  S
C370       C1074   1.485       .  S
C371       C1654   1.478       .  S
C372       C1334   1.495       .  S
C373       C1174   1.478       .  S
C374        C745   1.493       .  S
H375        O376   0.966       .  S
H377        O378   0.966       .  S
O379        C390   1.286       .  A
O379       Eu415   2.431       .  S
O380        C391   1.290       .  A
O380       Eu414   2.452       .  S
O381        C392   1.290       .  A
O381       Eu387   2.450       .  S
O382        C393   1.293       .  A
O382       Eu387   2.463       .  S
O383        C393   1.291       .  A
O383       Eu417   2.459       .  S
O384        C392   1.294       .  A
O384       Eu416   2.473       .  S
O385        C391   1.291       .  A
O385       Eu387   2.460       .  S
O386        C390   1.293       .  A
O386       Eu387   2.465       .  S
Eu387       O397   2.354       .  S
Eu387       O389   2.342       .  S
Eu387       O388   2.351       .  S
Eu387       O395   2.357       .  S
O388       Eu417   2.347       .  S
O388       Eu414   2.349       .  S
O389       Eu415   2.348       .  S
O389       Eu416   2.344       .  S
C390       C1954   1.468       .  S
C391       C1485   1.471       .  S
C392        C874   1.479       .  S
C393       C1874   1.489       .  S
H394        O395   0.966       .  S
O395       Eu416   2.357       .  S
O395       Eu414   2.360       .  S
H396        O397   0.966       .  S
O397       Eu415   2.351       .  S
O397       Eu417   2.351       .  S
O398        C421   1.292       .  A
O398       Eu414   2.464       .  S
O399        C422   1.291       .  A
O399       Eu415   2.457       .  S
O400        C423   1.293       .  A
O400       Eu416   2.466       .  S
O401        C424   1.291       .  A
O401       Eu417   2.455       .  S
O402        C425   1.291       .  A
O402       Eu417   2.455       .  S
O403        C426   1.293       .  A
O403       Eu416   2.462       .  S
O404        C427   1.291       .  A
O404       Eu418   2.451       .  S
O405        C428   1.290       .  A
O405       Eu418   2.447       .  S
O406        C427   1.294       .  A
O406       Eu416   2.475       .  S
O407        C428   1.291       .  A
O407       Eu417   2.446       .  S
O408        C423   1.289       .  A
O408       Eu414   2.441       .  S
O409        C426   1.287       .  A
O409       Eu415   2.434       .  S
O410        C425   1.290       .  A
O410       Eu415   2.453       .  S
O411        C424   1.291       .  A
O411       Eu414   2.459       .  S
O412        C421   1.292       .  A
O412       Eu418   2.459       .  S
O413        C422   1.291       .  A
O413       Eu418   2.461       .  S
Eu414       O432   2.346       .  S
Eu414       O420   2.350       .  S
Eu415       O419   2.335       .  S
Eu415       O430   2.353       .  S
Eu416       O430   2.357       .  S
Eu416       O420   2.354       .  S
Eu417       O419   2.352       .  S
Eu417       O432   2.355       .  S
Eu418       O419   2.351       .  S
Eu418       O430   2.351       .  S
Eu418       O432   2.358       .  S
Eu418       O420   2.346       .  S
C421       C1914   1.487       .  S
C422       C1274   1.481       .  S
C423       C1374   1.484       .  S
C424        C594   1.482       .  S
C425       C1385   1.480       .  S
C426        C794   1.471       .  S
C427       C1754   1.488       .  S
C428        C914   1.471       .  S
H429        O430   0.966       .  S
H431        O432   0.966       .  S
O433        C444   1.290       .  A
O433       Eu469   2.444       .  S
O434        C445   1.290       .  A
O434       Eu468   2.449       .  S
O435        C446   1.293       .  A
O435       Eu441   2.467       .  S
O436        C447   1.289       .  A
O436       Eu441   2.449       .  S
O437        C447   1.295       .  A
O437       Eu471   2.472       .  S
O438        C446   1.293       .  A
O438       Eu470   2.471       .  S
O439        C445   1.291       .  A
O439       Eu441   2.450       .  S
O440        C444   1.293       .  A
O440       Eu441   2.471       .  S
Eu441       O451   2.358       .  S
Eu441       O443   2.348       .  S
Eu441       O442   2.358       .  S
Eu441       O449   2.352       .  S
O442       Eu471   2.346       .  S
O442       Eu468   2.355       .  S
O443       Eu469   2.356       .  S
O443       Eu470   2.355       .  S
C444       C1685   1.485       .  S
C445       C1045   1.479       .  S
C446       C1214   1.493       .  S
C447        C774   1.483       .  S
H448        O449   0.966       .  S
O449       Eu470   2.343       .  S
O449       Eu468   2.356       .  S
H450        O451   0.966       .  S
O451       Eu469   2.353       .  S
O451       Eu471   2.360       .  S
O452        C475   1.293       .  A
O452       Eu468   2.463       .  S
O453        C476   1.290       .  A
O453       Eu469   2.450       .  S
O454        C477   1.291       .  A
O454       Eu470   2.460       .  S
O455        C478   1.293       .  A
O455       Eu471   2.462       .  S
O456        C479   1.291       .  A
O456       Eu471   2.454       .  S
O457        C480   1.290       .  A
O457       Eu470   2.447       .  S
O458        C481   1.291       .  A
O458       Eu472   2.457       .  S
O459        C482   1.292       .  A
O459       Eu472   2.463       .  S
O460        C481   1.291       .  A
O460       Eu470   2.450       .  S
O461        C482   1.293       .  A
O461       Eu471   2.471       .  S
O462        C477   1.291       .  A
O462       Eu468   2.456       .  S
O463        C480   1.292       .  A
O463       Eu469   2.462       .  S
O464        C479   1.292       .  A
O464       Eu469   2.460       .  S
O465        C478   1.291       .  A
O465       Eu468   2.459       .  S
O466        C475   1.289       .  A
O466       Eu472   2.447       .  S
O467        C476   1.290       .  A
O467       Eu472   2.450       .  S
Eu468       O486   2.354       .  S
Eu468       O474   2.344       .  S
Eu469       O473   2.341       .  S
Eu469       O484   2.350       .  S
Eu470       O484   2.355       .  S
Eu470       O474   2.353       .  S
Eu471       O473   2.347       .  S
Eu471       O486   2.358       .  S
Eu472       O473   2.337       .  S
Eu472       O484   2.351       .  S
Eu472       O486   2.358       .  S
Eu472       O474   2.352       .  S
C475       C1614   1.481       .  S
C476       C1085   1.478       .  S
C477       C1534   1.481       .  S
C478       C1014   1.487       .  S
C479       C1565   1.487       .  S
C480        C634   1.482       .  S
C481        C714   1.476       .  S
C482       C1134   1.481       .  S
H483        O484   0.966       .  S
H485        O486   0.966       .  S
O487        C498   1.292       .  A
O487       Eu523   2.465       .  S
O488        C499   1.289       .  A
O488       Eu522   2.450       .  S
O489        C500   1.290       .  A
O489       Eu495   2.451       .  S
O490        C501   1.291       .  A
O490       Eu495   2.454       .  S
O491        C501   1.285       .  A
O491       Eu525   2.428       .  S
O492        C500   1.294       .  A
O492       Eu524   2.469       .  S
O493        C499   1.293       .  A
O493       Eu495   2.463       .  S
O494        C498   1.292       .  A
O494       Eu495   2.467       .  S
Eu495       O505   2.356       .  S
Eu495       O497   2.350       .  S
Eu495       O496   2.341       .  S
Eu495       O503   2.356       .  S
O496       Eu525   2.344       .  S
O496       Eu522   2.345       .  S
O497       Eu523   2.345       .  S
O497       Eu524   2.347       .  S
C498       C1925   1.475       .  S
C499       C1294   1.480       .  S
C500        C854   1.479       .  S
C501       C1414   1.459       .  S
H502        O503   0.966       .  S
O503       Eu524   2.347       .  S
O503       Eu522   2.355       .  S
H504        O505   0.966       .  S
O505       Eu523   2.358       .  S
O505       Eu525   2.359       .  S
O506        C529   1.291       .  A
O506       Eu522   2.459       .  S
O507        C530   1.291   1_655  A
O507       Eu523   2.458   1_545  S
O508        C531   1.290       .  A
O508       Eu524   2.447       .  S
O509        C532   1.291       .  A
O509       Eu525   2.462       .  S
O510        C533   1.292       .  A
O510       Eu525   2.457       .  S
O511        C534   1.290       .  A
O511       Eu524   2.454   1_545  S
O512        C535   1.291   1_565  A
O512       Eu526   2.450       .  S
O513        C536   1.291       .  A
O513       Eu526   2.461   1_455  S
O514        C535   1.293   1_565  A
O514       Eu524   2.467       .  S
O515        C536   1.289   1_655  A
O515       Eu525   2.444       .  S
O516        C531   1.291       .  A
O516       Eu522   2.453       .  S
O517        C534   1.291       .  A
O517       Eu523   2.454   1_545  S
O518        C533   1.291       .  A
O518       Eu523   2.456       .  S
O519        C532   1.289       .  A
O519       Eu522   2.441       .  S
O520        C529   1.292       .  A
O520       Eu526   2.465       .  S
O521        C530   1.290       .  A
O521       Eu526   2.445   1_445  S
Eu522       O540   2.355       .  S
Eu522       O528   2.342       .  S
Eu523       O527   2.348       .  S
Eu523       O538   2.357       .  S
Eu524       O538   2.354       .  S
Eu524       O528   2.354       .  S
Eu525       O527   2.337       .  S
Eu525       O540   2.353       .  S
Eu526       O527   2.347       .  S
Eu526       O538   2.360       .  S
Eu526       O540   2.351       .  S
Eu526       O528   2.348       .  S
C529       C1634   1.491       .  S
C530       C1314   1.485       .  S
C531        C974   1.485       .  S
C532       C1794   1.483       .  S
C533        C894   1.483       .  S
C534       C1765   1.471       .  S
C535       C1154   1.481       .  S
C536        C814   1.479       .  S
H537        O538   0.966   1_545  S
H539        O540   0.966       .  S
C541        C542   1.406       .  A
C541        C546   1.404       .  A
C541        H551   1.083   1_655  S
C542        C547   1.490       .  S
C542        C543   1.407       .  A
C543        C544   1.396       .  A
C543        F548   1.358       .  S
C544        C545   1.408       .  A
C544        H549   1.083       .  S
C545        C546   1.412       .  A
C546        F550   1.357   1_655  S
C547        C552   1.409       .  A
C547        C556   1.405   1_655  A
C552        C553   1.399       .  A
C552        F557   1.358       .  S
C553        C554   1.405       .  A
C553        H558   1.083       .  S
C554        C555   1.411   1_655  A
C555        C556   1.402       .  A
C555        F559   1.357       .  S
C556        H560   1.083       .  S
C561        C562   1.405       .  A
C561        C566   1.405       .  A
C561        H571   1.083       .  S
C562        C567   1.486       .  S
C562        C563   1.406       .  A
C563        C564   1.395       .  A
C563        F568   1.358       .  S
C564        C565   1.406       .  A
C564        H569   1.083       .  S
C565        C566   1.413       .  A
C566        F570   1.358       .  S
C567        C572   1.407       .  A
C567        C576   1.404       .  A
C572        C573   1.404       .  A
C572        F577   1.357       .  S
C573        C574   1.409       .  A
C573        H578   1.083       .  S
C574        C575   1.407       .  A
C575        C576   1.396       .  A
C575        F579   1.357       .  S
C576        H580   1.083       .  S
C581        C582   1.406       .  A
C581        C586   1.404       .  A
C581        H591   1.083       .  S
C582        C587   1.481       .  S
C582        C583   1.403       .  A
C583        C584   1.391       .  A
C583        F588   1.358       .  S
C584        C585   1.407       .  A
C584        H589   1.083       .  S
C585        C586   1.409       .  A
C586        F590   1.357       .  S
C587        C592   1.405       .  A
C587        C596   1.403       .  A
C592        C593   1.402       .  A
C592        F597   1.357       .  S
C593        C594   1.408       .  A
C593        H598   1.083       .  S
C594        C595   1.408       .  A
C595        C596   1.395       .  A
C595        F599   1.358       .  S
C596        H600   1.083       .  S
C601        C602   1.402       .  A
C601        C606   1.400       .  A
C601        H611   1.083       .  S
C602        C607   1.472       .  S
C602        C603   1.404       .  A
C603        C604   1.393       .  A
C603        F608   1.358       .  S
C604        C605   1.402       .  A
C604        H609   1.084       .  S
C605        C606   1.408       .  A
C606        F610   1.358       .  S
C607        C612   1.405       .  A
C607        C616   1.397       .  A
C612        C613   1.404       .  A
C612        F617   1.357       .  S
C613        C614   1.407       .  A
C613        H618   1.083       .  S
C614        C615   1.410       .  A
C615        C616   1.389       .  A
C615        F619   1.358       .  S
C616        H620   1.084       .  S
C621        C622   1.402       .  A
C621        C626   1.393   1_455  A
C621        H631   1.084       .  S
C622        C627   1.478       .  S
C622        C623   1.407   1_455  A
C623        C624   1.402       .  A
C623        F628   1.357       .  S
C624        C625   1.404       .  A
C624        H629   1.083       .  S
C625        C626   1.407       .  A
C626        F630   1.358   1_655  S
C627        C632   1.405       .  A
C627        C636   1.402       .  A
C632        C633   1.401       .  A
C632        F637   1.357       .  S
C633        C634   1.407       .  A
C633        H638   1.083       .  S
C634        C635   1.410       .  A
C635        C636   1.393       .  A
C635        F639   1.358       .  S
C636        H640   1.084       .  S
C641        C642   1.402       .  A
C641        C646   1.390       .  A
C641        H651   1.084       .  S
C642        C647   1.476       .  S
C642        C643   1.407       .  A
C643        C644   1.398       .  A
C643        F648   1.357       .  S
C644        C645   1.404       .  A
C644        H649   1.083       .  S
C645        C646   1.408       .  A
C646        F650   1.358       .  S
C647        C652   1.405       .  A
C647        C656   1.403       .  A
C652        C653   1.397       .  A
C652        F657   1.357       .  S
C653        C654   1.407       .  A
C653        H658   1.083       .  S
C654        C655   1.407       .  A
C655        C656   1.391       .  A
C655        F659   1.358       .  S
C656        H660   1.084       .  S
C661        C662   1.403   1_556  A
C661        C666   1.398       .  A
C661        H671   1.083       .  S
C662        C667   1.480       .  S
C662        C663   1.405       .  A
C663        C664   1.400       .  A
C663        F668   1.357       .  S
C664        C665   1.405       .  A
C664        H669   1.083       .  S
C665        C666   1.407   1_554  A
C666        F670   1.358       .  S
C667        C672   1.404       .  A
C667        C676   1.403       .  A
C672        C673   1.398       .  A
C672        F677   1.358       .  S
C673        C674   1.409       .  A
C673        H678   1.083       .  S
C674        C675   1.412       .  A
C675        C676   1.402       .  A
C675        F679   1.357       .  S
C676        H680   1.083       .  S
C681        C682   1.403       .  A
C681        C686   1.403       .  A
C681        H691   1.083       .  S
C682        C687   1.486       .  S
C682        C683   1.406       .  A
C683        C684   1.398       .  A
C683        F688   1.358       .  S
C684        C685   1.407       .  A
C684        H689   1.083       .  S
C685        C686   1.414       .  A
C686        F690   1.357       .  S
C687        C692   1.405       .  A
C687        C696   1.406       .  A
C692        C693   1.396       .  A
C692        F697   1.358       .  S
C693        C694   1.405       .  A
C693        H698   1.083       .  S
C694        C695   1.409       .  A
C695        C696   1.405       .  A
C695        F699   1.357       .  S
C696        H700   1.083       .  S
C701        C702   1.400       .  A
C701        C706   1.390       .  A
C701        H711   1.084       .  S
C702        C707   1.479       .  S
C702        C703   1.407       .  A
C703        C704   1.404       .  A
C703        F708   1.357       .  S
C704        C705   1.407       .  A
C704        H709   1.083       .  S
C705        C706   1.411       .  A
C706        F710   1.358       .  S
C707        C712   1.405       .  A
C707        C716   1.404       .  A
C712        C713   1.392   1_655  A
C712        F717   1.358       .  S
C713        C714   1.403       .  A
C713        H718   1.083       .  S
C714        C715   1.409       .  A
C715        C716   1.401   1_455  A
C715        F719   1.358       .  S
C716        H720   1.083       .  S
C721        C722   1.400       .  A
C721        C726   1.393       .  A
C721        H731   1.084       .  S
C722        C727   1.487       .  S
C722        C723   1.409       .  A
C723        C724   1.409       .  A
C723        F728   1.357       .  S
C724        C725   1.408       .  A
C724        H729   1.083       .  S
C725        C726   1.411       .  A
C726        F730   1.358       .  S
C727        C732   1.406       .  A
C727        C736   1.404       .  A
C732        C733   1.398       .  A
C732        F737   1.358       .  S
C733        C734   1.406       .  A
C733        H738   1.083       .  S
C734        C735   1.412       .  A
C735        C736   1.405       .  A
C735        F739   1.357       .  S
C736        H740   1.083       .  S
C741        C742   1.405       .  A
C741        C746   1.402       .  A
C741        H751   1.083       .  S
C742        C747   1.493       .  S
C742        C743   1.409       .  A
C743        C744   1.398       .  A
C743        F748   1.358       .  S
C744        C745   1.409       .  A
C744        H749   1.083       .  S
C745        C746   1.411       .  A
C746        F750   1.357       .  S
C747        C752   1.407       .  A
C747        C756   1.409       .  A
C752        C753   1.397       .  A
C752        F757   1.358       .  S
C753        C754   1.407       .  A
C753        H758   1.083       .  S
C754        C755   1.407       .  A
C755        C756   1.406       .  A
C755        F759   1.357       .  S
C756        H760   1.083       .  S
C761        C762   1.402       .  A
C761        C766   1.390       .  A
C761        H771   1.083       .  S
C762        C767   1.486       .  S
C762        C763   1.409       .  A
C763        C764   1.404       .  A
C763        F768   1.357       .  S
C764        C765   1.409       .  A
C764        H769   1.083       .  S
C765        C766   1.408       .  A
C766        F770   1.357       .  S
C767        C772   1.408       .  A
C767        C776   1.405       .  A
C772        C773   1.393       .  A
C772        F777   1.358       .  S
C773        C774   1.402       .  A
C773        H778   1.083       .  S
C774        C775   1.412       .  A
C775        C776   1.404       .  A
C775        F779   1.358       .  S
C776        H780   1.083       .  S
C781        C782   1.399       .  A
C781        C786   1.391       .  A
C781        H791   1.084       .  S
C782        C787   1.470       .  S
C782        C783   1.404       .  A
C783        C784   1.400       .  A
C783        F788   1.358       .  S
C784        C785   1.408       .  A
C784        H789   1.083       .  S
C785        C786   1.410       .  A
C786        F790   1.357       .  S
C787        C792   1.403       .  A
C787        C796   1.402       .  A
C792        C793   1.399       .  A
C792        F797   1.358       .  S
C793        C794   1.408       .  A
C793        H798   1.084       .  S
C794        C795   1.404       .  A
C795        C796   1.392       .  A
C795        F799   1.357       .  S
C796        H800   1.084       .  S
C801        C802   1.405       .  A
C801        C806   1.402       .  A
C801        H811   1.083       .  S
C802        C807   1.482       .  S
C802        C803   1.404       .  A
C803        C804   1.393       .  A
C803        F808   1.358       .  S
C804        C805   1.408       .  A
C804        H809   1.083       .  S
C805        C806   1.410       .  A
C806        F810   1.357       .  S
C807        C812   1.407       .  A
C807        C816   1.403       .  A
C812        C813   1.401       .  A
C812        F817   1.357   1_565  S
C813        C814   1.407       .  A
C813        H818   1.083       .  S
C814        C815   1.408       .  A
C815        C816   1.393       .  A
C815        F819   1.358       .  S
C816        H820   1.083       .  S
C821        C822   1.404       .  A
C821        C826   1.395       .  A
C821        H831   1.083       .  S
C822        C827   1.479       .  S
C822        C823   1.404       .  A
C823        C824   1.397       .  A
C823        F828   1.357       .  S
C824        C825   1.405       .  A
C824        H829   1.083       .  S
C825        C826   1.410       .  A
C826        F830   1.357       .  S
C827        C832   1.403       .  A
C827        C836   1.406       .  A
C832        C833   1.391   1_545  A
C832        F837   1.358       .  S
C833        C834   1.407       .  A
C833        H838   1.083       .  S
C834        C835   1.408   1_565  A
C835        C836   1.401       .  A
C835        F839   1.357       .  S
C836        H840   1.083       .  S
C841        C842   1.400       .  A
C841        C846   1.390       .  A
C841        H851   1.084       .  S
C842        C847   1.480       .  S
C842        C843   1.408       .  A
C843        C844   1.405       .  A
C843        F848   1.357       .  S
C844        C845   1.407       .  A
C844        H849   1.083       .  S
C845        C846   1.408       .  A
C846        F850   1.358   1_565  S
C847        C852   1.406       .  A
C847        C856   1.404       .  A
C852        C853   1.394       .  A
C852        F857   1.358       .  S
C853        C854   1.403       .  A
C853        H858   1.084       .  S
C854        C855   1.411       .  A
C855        C856   1.403       .  A
C855        F859   1.358       .  S
C856        H860   1.083       .  S
C861        C862   1.399       .  A
C861        C866   1.392       .  A
C861        H871   1.084       .  S
C862        C867   1.475       .  S
C862        C863   1.405       .  A
C863        C864   1.403       .  A
C863        F868   1.357       .  S
C864        C865   1.408       .  A
C864        H869   1.083       .  S
C865        C866   1.409       .  A
C866        F870   1.357       .  S
C867        C872   1.402       .  A
C867        C876   1.403       .  A
C872        C873   1.400       .  A
C872        F877   1.357       .  S
C873        C874   1.408       .  A
C873        H878   1.083       .  S
C874        C875   1.407       .  A
C875        C876   1.397       .  A
C875        F879   1.358       .  S
C876        H880   1.084       .  S
C881        C882   1.400   1_565  A
C881        C886   1.393       .  A
C881        H891   1.084       .  S
C882        C887   1.478       .  S
C882        C883   1.406       .  A
C883        C884   1.402       .  A
C883        F888   1.357       .  S
C884        C885   1.407       .  A
C884        H889   1.083       .  S
C885        C886   1.411   1_545  A
C886        F890   1.357       .  S
C887        C892   1.405   1_545  A
C887        C896   1.402       .  A
C892        C893   1.396       .  A
C892        F897   1.358       .  S
C893        C894   1.407   1_455  A
C893        H898   1.083       .  S
C894        C895   1.411   1_565  A
C895        C896   1.399   1_655  A
C895        F899   1.357       .  S
C896        H900   1.083       .  S
C901        C902   1.398       .  A
C901        C906   1.390       .  A
C901        H911   1.084       .  S
C902        C907   1.472       .  S
C902        C903   1.405       .  A
C903        C904   1.403       .  A
C903        F908   1.358       .  S
C904        C905   1.409       .  A
C904        H909   1.083       .  S
C905        C906   1.411       .  A
C906        F910   1.357       .  S
C907        C912   1.404       .  A
C907        C916   1.402       .  A
C912        C913   1.391       .  A
C912        F917   1.358       .  S
C913        C914   1.402       .  A
C913        H918   1.084       .  S
C914        C915   1.409       .  A
C915        C916   1.400       .  A
C915        F919   1.358       .  S
C916        H920   1.083       .  S
C921        C922   1.405       .  A
C921        C926   1.404       .  A
C921        H931   1.083       .  S
C922        C927   1.484       .  S
C922        C923   1.404       .  A
C923        C924   1.393       .  A
C923        F928   1.358       .  S
C924        C925   1.407       .  A
C924        H929   1.083       .  S
C925        C926   1.412       .  A
C926        F930   1.357       .  S
C927        C932   1.407       .  A
C927        C936   1.404       .  A
C932        C933   1.395       .  A
C932        F937   1.357       .  S
C933        C934   1.402       .  A
C933        H938   1.083       .  S
C934        C935   1.412       .  A
C935        C936   1.403       .  A
C935        F939   1.358       .  S
C936        H940   1.083       .  S
C941        C942   1.403       .  A
C941        C946   1.395       .  A
C941        H951   1.084       .  S
C942        C947   1.478       .  S
C942        C943   1.405       .  A
C943        C944   1.398       .  A
C943        F948   1.357       .  S
C944        C945   1.406       .  A
C944        H949   1.083       .  S
C945        C946   1.408       .  A
C946        F950   1.358       .  S
C947        C952   1.405       .  A
C947        C956   1.402   1_565  A
C952        C953   1.400   1_565  A
C952        F957   1.357       .  S
C953        C954   1.408       .  A
C953        H958   1.083       .  S
C954        C955   1.411       .  A
C955        C956   1.394       .  A
C955        F959   1.358       .  S
C956        H960   1.084       .  S
C961        C962   1.405       .  A
C961        C966   1.401       .  A
C961        H971   1.083       .  S
C962        C967   1.480       .  S
C962        C963   1.406       .  A
C963        C964   1.394       .  A
C963        F968   1.358       .  S
C964        C965   1.404       .  A
C964        H969   1.083       .  S
C965        C966   1.407       .  A
C966        F970   1.357       .  S
C967        C972   1.405       .  A
C967        C976   1.402       .  A
C972        C973   1.400       .  A
C972        F977   1.357       .  S
C973        C974   1.409       .  A
C973        H978   1.083       .  S
C974        C975   1.411       .  A
C975        C976   1.392       .  A
C975        F979   1.358       .  S
C976        H980   1.083       .  S
C981        C982   1.403       .  A
C981        C986   1.396       .  A
C981        H991   1.084       .  S
C982        C987   1.477       .  S
C982        C983   1.404       .  A
C983        C984   1.399       .  A
C983        F988   1.357       .  S
C984        C985   1.405       .  A
C984        H989   1.083       .  S
C985        C986   1.408       .  A
C986        F990   1.358       .  S
C987        C992   1.403       .  A
C987        C996   1.403       .  A
C992        C993   1.394       .  A
C992        F997   1.358       .  S
C993        C994   1.407       .  A
C993        H998   1.083       .  S
C994        C995   1.411       .  A
C995        C996   1.401       .  A
C995        F999   1.357       .  S
C996       H1000   1.083       .  S
C1001      C1002   1.402       .  A
C1001      C1006   1.393       .  A
C1001      H1011   1.084       .  S
C1002      C1007   1.482       .  S
C1002      C1003   1.408       .  A
C1003      C1004   1.404       .  A
C1003      F1008   1.357       .  S
C1004      C1005   1.405       .  A
C1004      H1009   1.083       .  S
C1005      C1006   1.406       .  A
C1006      F1010   1.358       .  S
C1007      C1012   1.405       .  A
C1007      C1016   1.404       .  A
C1012      C1013   1.394       .  A
C1012      F1017   1.358       .  S
C1013      C1014   1.406       .  A
C1013      H1018   1.083       .  S
C1014      C1015   1.413       .  A
C1015      C1016   1.404       .  A
C1015      F1019   1.357       .  S
C1016      H1020   1.083       .  S
C1021      C1022   1.406       .  A
C1021      C1026   1.402       .  A
C1021      H1031   1.083       .  S
C1022      C1027   1.484       .  S
C1022      C1023   1.405   1_545  A
C1023      C1024   1.393       .  A
C1023      F1028   1.358       .  S
C1024      C1025   1.407   1_565  A
C1024      H1029   1.083       .  S
C1025      C1026   1.409       .  A
C1026      F1030   1.357       .  S
C1027      C1032   1.408       .  A
C1027      C1036   1.403   1_545  A
C1032      C1033   1.402       .  A
C1032      F1037   1.357       .  S
C1033      C1034   1.405   1_545  A
C1033      H1038   1.083       .  S
C1034      C1035   1.409       .  A
C1035      C1036   1.395       .  A
C1035      F1039   1.358       .  S
C1036      H1040   1.083       .  S
C1041      C1042   1.401       .  A
C1041      C1046   1.398       .  A
C1041      H1051   1.083       .  S
C1042      C1047   1.470       .  S
C1042      C1043   1.402       .  A
C1043      C1044   1.391       .  A
C1043      F1048   1.358       .  S
C1044      C1045   1.406       .  A
C1044      H1049   1.083       .  S
C1045      C1046   1.411       .  A
C1046      F1050   1.357       .  S
C1047      C1052   1.405       .  A
C1047      C1056   1.400       .  A
C1052      C1053   1.400       .  A
C1052      F1057   1.357       .  S
C1053      C1054   1.403       .  A
C1053      H1058   1.083       .  S
C1054      C1055   1.405       .  A
C1055      C1056   1.391       .  A
C1055      F1059   1.358       .  S
C1056      H1060   1.084       .  S
C1061      C1062   1.405       .  A
C1061      C1066   1.401       .  A
C1061      H1071   1.083       .  S
C1062      C1067   1.483       .  S
C1062      C1063   1.407       .  A
C1063      C1064   1.396       .  A
C1063      F1068   1.358       .  S
C1064      C1065   1.404       .  A
C1064      H1069   1.084       .  S
C1065      C1066   1.406       .  A
C1066      F1070   1.357       .  S
C1067      C1072   1.407       .  A
C1067      C1076   1.402       .  A
C1072      C1073   1.402       .  A
C1072      F1077   1.357       .  S
C1073      C1074   1.407       .  A
C1073      H1078   1.083       .  S
C1074      C1075   1.412       .  A
C1075      C1076   1.395       .  A
C1075      F1079   1.358       .  S
C1076      H1080   1.083       .  S
C1081      C1082   1.404       .  A
C1081      C1086   1.391       .  A
C1081      H1091   1.083       .  S
C1082      C1087   1.481       .  S
C1082      C1083   1.406       .  A
C1083      C1084   1.401   1_655  A
C1083      F1088   1.357       .  S
C1084      C1085   1.408       .  A
C1084      H1089   1.083       .  S
C1085      C1086   1.407   1_455  A
C1086      F1090   1.358       .  S
C1087      C1092   1.405       .  A
C1087      C1096   1.406       .  A
C1092      C1093   1.390       .  A
C1092      F1097   1.358       .  S
C1093      C1094   1.404       .  A
C1093      H1098   1.083       .  S
C1094      C1095   1.410       .  A
C1095      C1096   1.402       .  A
C1095      F1099   1.357       .  S
C1096      H1100   1.083       .  S
C1101      C1102   1.404       .  A
C1101      C1106   1.403       .  A
C1101      H1111   1.083       .  S
C1102      C1107   1.479       .  S
C1102      C1103   1.403       .  A
C1103      C1104   1.393       .  A
C1103      F1108   1.358       .  S
C1104      C1105   1.405       .  A
C1104      H1109   1.083       .  S
C1105      C1106   1.410       .  A
C1106      F1110   1.357       .  S
C1107      C1112   1.404       .  A
C1107      C1116   1.403       .  A
C1112      C1113   1.400       .  A
C1112      F1117   1.357       .  S
C1113      C1114   1.409       .  A
C1113      H1118   1.083       .  S
C1114      C1115   1.406       .  A
C1115      C1116   1.394       .  A
C1115      F1119   1.358       .  S
C1116      H1120   1.084       .  S
C1121      C1122   1.410       .  A
C1121      C1126   1.410       .  A
C1121      H1131   1.083       .  S
C1122      C1127   1.497       .  S
C1122      C1123   1.406       .  A
C1123      C1124   1.395       .  A
C1123      F1128   1.358       .  S
C1124      C1125   1.411       .  A
C1124      H1129   1.083       .  S
C1125      C1126   1.411       .  A
C1126      F1130   1.357       .  S
C1127      C1132   1.410       .  A
C1127      C1136   1.409       .  A
C1132      C1133   1.404       .  A
C1132      F1137   1.357       .  S
C1133      C1134   1.404       .  A
C1133      H1138   1.083       .  S
C1134      C1135   1.406       .  A
C1135      C1136   1.400       .  A
C1135      F1139   1.358       .  S
C1136      H1140   1.083       .  S
C1141      C1142   1.406       .  A
C1141      C1146   1.406       .  A
C1141      H1151   1.083       .  S
C1142      C1147   1.486       .  S
C1142      C1143   1.405   1_655  A
C1143      C1144   1.393       .  A
C1143      F1148   1.358       .  S
C1144      C1145   1.407       .  A
C1144      H1149   1.083       .  S
C1145      C1146   1.411   1_455  A
C1146      F1150   1.357       .  S
C1147      C1152   1.407       .  A
C1147      C1156   1.404       .  A
C1152      C1153   1.404       .  A
C1152      F1157   1.357       .  S
C1153      C1154   1.407       .  A
C1153      H1158   1.083       .  S
C1154      C1155   1.408       .  A
C1155      C1156   1.394       .  A
C1155      F1159   1.358       .  S
C1156      H1160   1.083       .  S
C1161      C1162   1.406       .  A
C1161      C1166   1.401       .  A
C1161      H1171   1.083       .  S
C1162      C1167   1.484       .  S
C1162      C1163   1.406       .  A
C1163      C1164   1.395       .  A
C1163      F1168   1.358       .  S
C1164      C1165   1.407       .  A
C1164      H1169   1.083       .  S
C1165      C1166   1.407       .  A
C1166      F1170   1.357       .  S
C1167      C1172   1.407       .  A
C1167      C1176   1.404       .  A
C1172      C1173   1.400       .  A
C1172      F1177   1.357       .  S
C1173      C1174   1.405       .  A
C1173      H1178   1.083       .  S
C1174      C1175   1.408       .  A
C1175      C1176   1.394       .  A
C1175      F1179   1.358       .  S
C1176      H1180   1.083       .  S
C1181      C1182   1.402       .  A
C1181      C1186   1.395       .  A
C1181      H1191   1.084       .  S
C1182      C1187   1.475       .  S
C1182      C1183   1.404       .  A
C1183      C1184   1.401       .  A
C1183      F1188   1.358       .  S
C1184      C1185   1.406       .  A
C1184      H1189   1.083       .  S
C1185      C1186   1.405       .  A
C1186      F1190   1.357       .  S
C1187      C1192   1.402       .  A
C1187      C1196   1.402       .  A
C1192      C1193   1.394       .  A
C1192      F1197   1.358       .  S
C1193      C1194   1.406       .  A
C1193      H1198   1.083       .  S
C1194      C1195   1.412       .  A
C1195      C1196   1.402       .  A
C1195      F1199   1.358   1_554  S
C1196      H1200   1.083   1_554  S
C1201      C1202   1.403       .  A
C1201      C1206   1.395       .  A
C1201      H1211   1.084       .  S
C1202      C1207   1.489       .  S
C1202      C1203   1.409       .  A
C1203      C1204   1.408       .  A
C1203      F1208   1.357       .  S
C1204      C1205   1.409       .  A
C1204      H1209   1.083       .  S
C1205      C1206   1.408       .  A
C1206      F1210   1.357       .  S
C1207      C1212   1.408       .  A
C1207      C1216   1.403       .  A
C1212      C1213   1.407       .  A
C1212      F1217   1.357       .  S
C1213      C1214   1.411       .  A
C1213      H1218   1.083       .  S
C1214      C1215   1.410       .  A
C1215      C1216   1.396       .  A
C1215      F1219   1.357       .  S
C1216      H1220   1.084       .  S
C1221      C1222   1.404       .  A
C1221      C1226   1.393       .  A
C1221      H1231   1.083       .  S
C1222      C1227   1.485       .  S
C1222      C1223   1.409       .  A
C1223      C1224   1.404       .  A
C1223      F1228   1.357       .  S
C1224      C1225   1.405       .  A
C1224      H1229   1.083   1_545  S
C1225      C1226   1.405       .  A
C1226      F1230   1.358       .  S
C1227      C1232   1.407       .  A
C1227      C1236   1.404       .  A
C1232      C1233   1.394       .  A
C1232      F1237   1.358       .  S
C1233      C1234   1.406       .  A
C1233      H1238   1.083       .  S
C1234      C1235   1.414       .  A
C1235      C1236   1.402       .  A
C1235      F1239   1.357       .  S
C1236      H1240   1.083       .  S
C1241      C1242   1.404       .  A
C1241      C1246   1.393       .  A
C1241      H1251   1.083   1_554  S
C1242      C1247   1.491       .  S
C1242      C1243   1.409       .  A
C1243      C1244   1.403       .  A
C1243      F1248   1.357       .  S
C1244      C1245   1.406       .  A
C1244      H1249   1.083       .  S
C1245      C1246   1.410       .  A
C1246      F1250   1.358   1_554  S
C1247      C1252   1.408       .  A
C1247      C1256   1.408       .  A
C1252      C1253   1.393       .  A
C1252      F1257   1.358   1_565  S
C1253      C1254   1.404       .  A
C1253      H1258   1.083   1_565  S
C1254      C1255   1.410       .  A
C1255      C1256   1.404       .  A
C1255      F1259   1.357       .  S
C1256      H1260   1.083       .  S
C1261      C1262   1.407       .  A
C1261      C1266   1.407       .  A
C1261      H1271   1.083       .  S
C1262      C1267   1.486       .  S
C1262      C1263   1.403       .  A
C1263      C1264   1.394       .  A
C1263      F1268   1.358       .  S
C1264      C1265   1.408       .  A
C1264      H1269   1.083       .  S
C1265      C1266   1.410       .  A
C1266      F1270   1.357       .  S
C1267      C1272   1.407       .  A
C1267      C1276   1.404       .  A
C1272      C1273   1.404       .  A
C1272      F1277   1.357       .  S
C1273      C1274   1.408       .  A
C1273      H1278   1.083       .  S
C1274      C1275   1.407       .  A
C1275      C1276   1.395       .  A
C1275      F1279   1.358       .  S
C1276      H1280   1.083       .  S
C1281      C1282   1.401       .  A
C1281      C1286   1.390       .  A
C1281      H1291   1.084       .  S
C1282      C1287   1.479       .  S
C1282      C1283   1.407       .  A
C1283      C1284   1.403       .  A
C1283      F1288   1.357       .  S
C1284      C1285   1.406       .  A
C1284      H1289   1.083       .  S
C1285      C1286   1.406       .  A
C1286      F1290   1.358       .  S
C1287      C1292   1.405       .  A
C1287      C1296   1.403       .  A
C1292      C1293   1.392       .  A
C1292      F1297   1.358       .  S
C1293      C1294   1.403       .  A
C1293      H1298   1.083       .  S
C1294      C1295   1.412       .  A
C1295      C1296   1.402       .  A
C1295      F1299   1.358       .  S
C1296      H1300   1.083       .  S
C1301      C1302   1.405       .  A
C1301      C1306   1.394       .  A
C1301      H1311   1.083       .  S
C1302      C1307   1.482       .  S
C1302      C1303   1.408       .  A
C1303      C1304   1.400       .  A
C1303      F1308   1.357       .  S
C1304      C1305   1.404       .  A
C1304      H1309   1.083       .  S
C1305      C1306   1.404       .  A
C1306      F1310   1.358       .  S
C1307      C1312   1.406       .  A
C1307      C1316   1.404       .  A
C1312      C1313   1.392       .  A
C1312      F1317   1.358       .  S
C1313      C1314   1.407       .  A
C1313      H1318   1.083       .  S
C1314      C1315   1.412       .  A
C1315      C1316   1.400       .  A
C1315      F1319   1.357       .  S
C1316      H1320   1.083       .  S
C1321      C1322   1.404       .  A
C1321      C1326   1.398       .  A
C1321      H1331   1.083       .  S
C1322      C1327   1.488       .  S
C1322      C1323   1.408       .  A
C1323      C1324   1.405       .  A
C1323      F1328   1.357       .  S
C1324      C1325   1.407       .  A
C1324      H1329   1.083       .  S
C1325      C1326   1.408       .  A
C1326      F1330   1.357       .  S
C1327      C1332   1.406       .  A
C1327      C1336   1.403       .  A
C1332      C1333   1.404       .  A
C1332      F1337   1.357       .  S
C1333      C1334   1.410       .  A
C1333      H1338   1.083       .  S
C1334      C1335   1.413       .  A
C1335      C1336   1.398       .  A
C1335      F1339   1.357       .  S
C1336      H1340   1.084       .  S
C1341      C1342   1.402       .  A
C1341      C1346   1.393       .  A
C1341      H1351   1.084       .  S
C1342      C1347   1.480       .  S
C1342      C1343   1.405       .  A
C1343      C1344   1.401       .  A
C1343      F1348   1.357       .  S
C1344      C1345   1.408       .  A
C1344      H1349   1.083       .  S
C1345      C1346   1.411       .  A
C1346      F1350   1.358       .  S
C1347      C1352   1.405       .  A
C1347      C1356   1.404       .  A
C1352      C1353   1.392       .  A
C1352      F1357   1.358       .  S
C1353      C1354   1.404       .  A
C1353      H1358   1.083       .  S
C1354      C1355   1.409       .  A
C1355      C1356   1.400       .  A
C1355      F1359   1.357       .  S
C1356      H1360   1.083       .  S
C1361      C1362   1.400       .  A
C1361      C1366   1.393       .  A
C1361      H1371   1.084       .  S
C1362      C1367   1.476       .  S
C1362      C1363   1.406       .  A
C1363      C1364   1.402       .  A
C1363      F1368   1.358       .  S
C1364      C1365   1.406       .  A
C1364      H1369   1.083       .  S
C1365      C1366   1.408       .  A
C1366      F1370   1.358       .  S
C1367      C1372   1.403       .  A
C1367      C1376   1.402       .  A
C1372      C1373   1.398   1_655  A
C1372      F1377   1.357       .  S
C1373      C1374   1.407       .  A
C1373      H1378   1.083       .  S
C1374      C1375   1.412   1_455  A
C1375      C1376   1.395       .  A
C1375      F1379   1.358       .  S
C1376      H1380   1.084       .  S
C1381      C1382   1.402       .  A
C1381      C1386   1.395       .  A
C1381      H1391   1.084       .  S
C1382      C1387   1.477       .  S
C1382      C1383   1.404       .  A
C1383      C1384   1.399       .  A
C1383      F1388   1.357       .  S
C1384      C1385   1.407       .  A
C1384      H1389   1.083       .  S
C1385      C1386   1.409       .  A
C1386      F1390   1.358       .  S
C1387      C1392   1.403       .  A
C1387      C1396   1.403       .  A
C1392      C1393   1.394       .  A
C1392      F1397   1.358       .  S
C1393      C1394   1.407       .  A
C1393      H1398   1.083       .  S
C1394      C1395   1.410       .  A
C1395      C1396   1.400       .  A
C1395      F1399   1.357       .  S
C1396      H1400   1.083       .  S
C1401      C1402   1.402       .  A
C1401      C1406   1.399       .  A
C1401      H1411   1.083       .  S
C1402      C1407   1.472       .  S
C1402      C1403   1.403       .  A
C1403      C1404   1.388       .  A
C1403      F1408   1.358       .  S
C1404      C1405   1.406       .  A
C1404      H1409   1.083       .  S
C1405      C1406   1.411       .  A
C1406      F1410   1.357       .  S
C1407      C1412   1.407       .  A
C1407      C1416   1.402       .  A
C1412      C1413   1.397       .  A
C1412      F1417   1.358       .  S
C1413      C1414   1.402       .  A
C1413      H1418   1.083       .  S
C1414      C1415   1.402       .  A
C1415      C1416   1.390       .  A
C1415      F1419   1.358       .  S
C1416      H1420   1.083       .  S
C1421      C1422   1.402       .  A
C1421      C1426   1.393       .  A
C1421      H1431   1.083       .  S
C1422      C1427   1.488       .  S
C1422      C1423   1.409       .  A
C1423      C1424   1.406       .  A
C1423      F1428   1.357       .  S
C1424      C1425   1.409       .  A
C1424      H1429   1.083       .  S
C1425      C1426   1.410       .  A
C1426      F1430   1.357       .  S
C1427      C1432   1.408   1_565  A
C1427      C1436   1.405   1_565  A
C1432      C1433   1.396       .  A
C1432      F1437   1.358       .  S
C1433      C1434   1.404       .  A
C1433      H1438   1.083       .  S
C1434      C1435   1.412       .  A
C1435      C1436   1.404       .  A
C1435      F1439   1.357       .  S
C1436      H1440   1.083   1_545  S
C1441      C1442   1.406   1_655  A
C1441      C1446   1.405       .  A
C1441      H1451   1.083       .  S
C1442      C1447   1.484   1_455  S
C1442      C1443   1.404       .  A
C1443      C1444   1.396       .  A
C1443      F1448   1.357       .  S
C1444      C1445   1.404       .  A
C1444      H1449   1.083       .  S
C1445      C1446   1.409   1_455  A
C1446      F1450   1.358       .  S
C1447      C1452   1.406   1_655  A
C1447      C1456   1.402       .  A
C1452      C1453   1.399   1_455  A
C1452      F1457   1.358       .  S
C1453      C1454   1.406       .  A
C1453      H1458   1.083   1_655  S
C1454      C1455   1.414       .  A
C1455      C1456   1.403       .  A
C1455      F1459   1.357       .  S
C1456      H1460   1.083       .  S
C1461      C1462   1.404       .  A
C1461      C1466   1.391       .  A
C1461      H1471   1.084       .  S
C1462      C1467   1.475       .  S
C1462      C1463   1.404       .  A
C1463      C1464   1.397       .  A
C1463      F1468   1.357       .  S
C1464      C1465   1.407       .  A
C1464      H1469   1.083       .  S
C1465      C1466   1.406       .  A
C1466      F1470   1.358       .  S
C1467      C1472   1.403       .  A
C1467      C1476   1.405       .  A
C1472      C1473   1.389       .  A
C1472      F1477   1.358       .  S
C1473      C1474   1.404       .  A
C1473      H1478   1.083       .  S
C1474      C1475   1.409       .  A
C1475      C1476   1.401       .  A
C1475      F1479   1.357       .  S
C1476      H1480   1.083       .  S
C1481      C1482   1.404       .  A
C1481      C1486   1.394       .  A
C1481      H1491   1.083       .  S
C1482      C1487   1.481       .  S
C1482      C1483   1.408       .  A
C1483      C1484   1.402       .  A
C1483      F1488   1.357       .  S
C1484      C1485   1.404       .  A
C1484      H1489   1.083       .  S
C1485      C1486   1.404       .  A
C1486      F1490   1.358       .  S
C1487      C1492   1.403       .  A
C1487      C1496   1.405       .  A
C1492      C1493   1.393       .  A
C1492      F1497   1.358       .  S
C1493      C1494   1.410       .  A
C1493      H1498   1.083       .  S
C1494      C1495   1.410       .  A
C1495      C1496   1.403       .  A
C1495      F1499   1.357       .  S
C1496      H1500   1.083       .  S
C1501      C1502   1.407       .  A
C1501      C1506   1.407       .  A
C1501      H1511   1.083       .  S
C1502      C1507   1.491       .  S
C1502      C1503   1.407       .  A
C1503      C1504   1.395       .  A
C1503      F1508   1.358       .  S
C1504      C1505   1.406       .  A
C1504      H1509   1.083       .  S
C1505      C1506   1.411       .  A
C1506      F1510   1.357       .  S
C1507      C1512   1.408       .  A
C1507      C1516   1.404       .  A
C1512      C1513   1.406       .  A
C1512      F1517   1.358       .  S
C1513      C1514   1.412       .  A
C1513      H1518   1.083       .  S
C1514      C1515   1.408       .  A
C1515      C1516   1.395       .  A
C1515      F1519   1.357       .  S
C1516      H1520   1.083       .  S
C1521      C1522   1.404       .  A
C1521      C1526   1.402       .  A
C1521      H1531   1.083       .  S
C1522      C1527   1.482       .  S
C1522      C1523   1.404       .  A
C1523      C1524   1.395       .  A
C1523      F1528   1.358       .  S
C1524      C1525   1.408       .  A
C1524      H1529   1.083       .  S
C1525      C1526   1.411       .  A
C1526      F1530   1.357       .  S
C1527      C1532   1.406       .  A
C1527      C1536   1.404       .  A
C1532      C1533   1.395       .  A
C1532      F1537   1.358       .  S
C1533      C1534   1.405       .  A
C1533      H1538   1.083       .  S
C1534      C1535   1.410       .  A
C1535      C1536   1.401       .  A
C1535      F1539   1.357       .  S
C1536      H1540   1.083       .  S
C1541      C1542   1.406       .  A
C1541      C1546   1.399       .  A
C1541      H1551   1.083       .  S
C1542      C1547   1.483       .  S
C1542      C1543   1.404   1_445  A
C1543      C1544   1.402       .  A
C1543      F1548   1.357       .  S
C1544      C1545   1.408       .  A
C1544      H1549   1.083       .  S
C1545      C1546   1.404   1_665  A
C1546      F1550   1.357       .  S
C1547      C1552   1.408       .  A
C1547      C1556   1.397       .  A
C1552      C1553   1.408       .  A
C1552      F1557   1.357   1_545  S
C1553      C1554   1.410       .  A
C1553      H1558   1.083       .  S
C1554      C1555   1.416       .  A
C1555      C1556   1.392       .  A
C1555      F1559   1.357       .  S
C1556      H1560   1.084       .  S
C1561      C1562   1.403       .  A
C1561      C1566   1.401       .  A
C1561      H1571   1.083       .  S
C1562      C1567   1.480       .  S
C1562      C1563   1.404       .  A
C1563      C1564   1.394       .  A
C1563      F1568   1.358       .  S
C1564      C1565   1.407       .  A
C1564      H1569   1.083       .  S
C1565      C1566   1.413       .  A
C1566      F1570   1.358       .  S
C1567      C1572   1.406       .  A
C1567      C1576   1.403       .  A
C1572      C1573   1.399       .  A
C1572      F1577   1.357       .  S
C1573      C1574   1.405       .  A
C1573      H1578   1.083       .  S
C1574      C1575   1.409       .  A
C1575      C1576   1.396       .  A
C1575      F1579   1.358       .  S
C1576      H1580   1.083       .  S
C1581      C1582   1.404       .  A
C1581      C1586   1.395   1_565  A
C1581      H1591   1.083       .  S
C1582      C1587   1.482       .  S
C1582      C1583   1.406   1_565  A
C1583      C1584   1.402       .  A
C1583      F1588   1.358       .  S
C1584      C1585   1.408       .  A
C1584      H1589   1.083       .  S
C1585      C1586   1.407       .  A
C1586      F1590   1.358       .  S
C1587      C1592   1.405       .  A
C1587      C1596   1.405       .  A
C1592      C1593   1.394       .  A
C1592      F1597   1.358       .  S
C1593      C1594   1.404       .  A
C1593      H1598   1.083       .  S
C1594      C1595   1.410       .  A
C1595      C1596   1.403       .  A
C1595      F1599   1.358       .  S
C1596      H1600   1.083       .  S
C1601      C1602   1.400       .  A
C1601      C1606   1.390       .  A
C1601      H1611   1.084       .  S
C1602      C1607   1.483       .  S
C1602      C1603   1.409       .  A
C1603      C1604   1.407       .  A
C1603      F1608   1.357       .  S
C1604      C1605   1.408       .  A
C1604      H1609   1.083       .  S
C1605      C1606   1.409       .  A
C1606      F1610   1.357       .  S
C1607      C1612   1.407       .  A
C1607      C1616   1.404       .  A
C1612      C1613   1.394       .  A
C1612      F1617   1.358       .  S
C1613      C1614   1.403       .  A
C1613      H1618   1.083       .  S
C1614      C1615   1.411       .  A
C1615      C1616   1.403       .  A
C1615      F1619   1.358       .  S
C1616      H1620   1.083       .  S
C1621      C1622   1.407       .  A
C1621      C1626   1.405   1_655  A
C1621      H1631   1.083   1_655  S
C1622      C1627   1.485       .  S
C1622      C1623   1.405       .  A
C1623      C1624   1.393       .  A
C1623      F1628   1.358       .  S
C1624      C1625   1.404       .  A
C1624      H1629   1.084       .  S
C1625      C1626   1.408   1_655  A
C1626      F1630   1.357       .  S
C1627      C1632   1.405       .  A
C1627      C1636   1.403       .  A
C1632      C1633   1.404       .  A
C1632      F1637   1.357   1_655  S
C1633      C1634   1.411       .  A
C1633      H1638   1.083   1_655  S
C1634      C1635   1.411       .  A
C1635      C1636   1.395       .  A
C1635      F1639   1.358       .  S
C1636      H1640   1.084       .  S
C1641      C1642   1.401       .  A
C1641      C1646   1.389       .  A
C1641      H1651   1.083       .  S
C1642      C1647   1.480       .  S
C1642      C1643   1.408       .  A
C1643      C1644   1.402       .  A
C1643      F1648   1.357       .  S
C1644      C1645   1.406       .  A
C1644      H1649   1.083       .  S
C1645      C1646   1.408       .  A
C1646      F1650   1.358       .  S
C1647      C1652   1.407       .  A
C1647      C1656   1.404       .  A
C1652      C1653   1.393       .  A
C1652      F1657   1.358       .  S
C1653      C1654   1.404       .  A
C1653      H1658   1.084       .  S
C1654      C1655   1.409       .  A
C1655      C1656   1.399       .  A
C1655      F1659   1.357       .  S
C1656      H1660   1.083       .  S
C1661      C1662   1.402       .  A
C1661      C1666   1.394       .  A
C1661      H1671   1.084       .  S
C1662      C1667   1.470       .  S
C1662      C1663   1.401       .  A
C1663      C1664   1.397       .  A
C1663      F1668   1.357   1_554  S
C1664      C1665   1.408       .  A
C1664      H1669   1.083   1_554  S
C1665      C1666   1.408       .  A
C1666      F1670   1.357       .  S
C1667      C1672   1.402       .  A
C1667      C1676   1.403       .  A
C1672      C1673   1.391       .  A
C1672      F1677   1.358       .  S
C1673      C1674   1.402       .  A
C1673      H1678   1.084       .  S
C1674      C1675   1.406       .  A
C1675      C1676   1.399       .  A
C1675      F1679   1.358       .  S
C1676      H1680   1.083       .  S
C1681      C1682   1.405       .  A
C1681      C1686   1.402       .  A
C1681      H1691   1.083       .  S
C1682      C1687   1.483       .  S
C1682      C1683   1.406       .  A
C1683      C1684   1.393       .  A
C1683      F1688   1.358       .  S
C1684      C1685   1.407       .  A
C1684      H1689   1.083       .  S
C1685      C1686   1.410       .  A
C1686      F1690   1.357       .  S
C1687      C1692   1.408       .  A
C1687      C1696   1.403       .  A
C1692      C1693   1.401       .  A
C1692      F1697   1.357       .  S
C1693      C1694   1.403       .  A
C1693      H1698   1.083       .  S
C1694      C1695   1.407       .  A
C1695      C1696   1.393       .  A
C1695      F1699   1.358       .  S
C1696      H1700   1.083       .  S
C1701      C1702   1.404       .  A
C1701      C1706   1.402       .  A
C1701      H1711   1.083       .  S
C1702      C1707   1.480       .  S
C1702      C1703   1.404       .  A
C1703      C1704   1.391       .  A
C1703      F1708   1.358       .  S
C1704      C1705   1.407       .  A
C1704      H1709   1.083       .  S
C1705      C1706   1.412       .  A
C1706      F1710   1.357       .  S
C1707      C1712   1.407       .  A
C1707      C1716   1.404       .  A
C1712      C1713   1.394       .  A
C1712      F1717   1.358       .  S
C1713      C1714   1.401       .  A
C1713      H1718   1.084       .  S
C1714      C1715   1.408       .  A
C1715      C1716   1.401       .  A
C1715      F1719   1.358       .  S
C1716      H1720   1.083       .  S
C1721      C1722   1.405       .  A
C1721      C1726   1.395   1_554  A
C1721      H1731   1.083   1_554  S
C1722      C1727   1.482       .  S
C1722      C1723   1.408       .  A
C1723      C1724   1.398       .  A
C1723      F1728   1.357       .  S
C1724      C1725   1.403       .  A
C1724      H1729   1.083       .  S
C1725      C1726   1.404   1_554  A
C1726      F1730   1.358       .  S
C1727      C1732   1.406       .  A
C1727      C1736   1.403       .  A
C1732      C1733   1.395       .  A
C1732      F1737   1.358   1_554  S
C1733      C1734   1.408       .  A
C1733      H1738   1.083       .  S
C1734      C1735   1.412       .  A
C1735      C1736   1.399       .  A
C1735      F1739   1.357       .  S
C1736      H1740   1.083       .  S
C1741      C1742   1.407   1_655  A
C1741      C1746   1.405       .  A
C1741      H1751   1.083       .  S
C1742      C1747   1.488       .  S
C1742      C1743   1.406       .  A
C1743      C1744   1.392   1_455  A
C1743      F1748   1.358       .  S
C1744      C1745   1.406       .  A
C1744      H1749   1.083       .  S
C1745      C1746   1.410       .  A
C1746      F1750   1.357       .  S
C1747      C1752   1.408       .  A
C1747      C1756   1.403       .  A
C1752      C1753   1.406       .  A
C1752      F1757   1.357       .  S
C1753      C1754   1.409       .  A
C1753      H1758   1.083       .  S
C1754      C1755   1.410       .  A
C1755      C1756   1.393       .  A
C1755      F1759   1.358       .  S
C1756      H1760   1.083       .  S
C1761      C1762   1.404       .  A
C1761      C1766   1.394       .  A
C1761      H1771   1.083       .  S
C1762      C1767   1.480       .  S
C1762      C1763   1.407       .  A
C1763      C1764   1.400       .  A
C1763      F1768   1.357       .  S
C1764      C1765   1.405       .  A
C1764      H1769   1.083       .  S
C1765      C1766   1.404       .  A
C1766      F1770   1.358       .  S
C1767      C1772   1.403       .  A
C1767      C1776   1.405       .  A
C1772      C1773   1.391       .  A
C1772      F1777   1.358       .  S
C1773      C1774   1.406       .  A
C1773      H1778   1.083       .  S
C1774      C1775   1.411       .  A
C1775      C1776   1.403       .  A
C1775      F1779   1.357       .  S
C1776      H1780   1.083       .  S
C1781      C1782   1.404       .  A
C1781      C1786   1.393       .  A
C1781      H1791   1.083       .  S
C1782      C1787   1.481       .  S
C1782      C1783   1.407       .  A
C1783      C1784   1.400       .  A
C1783      F1788   1.357       .  S
C1784      C1785   1.405       .  A
C1784      H1789   1.083       .  S
C1785      C1786   1.406       .  A
C1786      F1790   1.358       .  S
C1787      C1792   1.405       .  A
C1787      C1796   1.405       .  A
C1792      C1793   1.391       .  A
C1792      F1797   1.358       .  S
C1793      C1794   1.406       .  A
C1793      H1798   1.083       .  S
C1794      C1795   1.411       .  A
C1795      C1796   1.401       .  A
C1795      F1799   1.357       .  S
C1796      H1800   1.083       .  S
C1801      C1802   1.403       .  A
C1801      C1806   1.400       .  A
C1801      H1811   1.083       .  S
C1802      C1807   1.478       .  S
C1802      C1803   1.405       .  A
C1803      C1804   1.394       .  A
C1803      F1808   1.358       .  S
C1804      C1805   1.404       .  A
C1804      H1809   1.083       .  S
C1805      C1806   1.409       .  A
C1806      F1810   1.357       .  S
C1807      C1812   1.405       .  A
C1807      C1816   1.402       .  A
C1812      C1813   1.394       .  A
C1812      F1817   1.358       .  S
C1813      C1814   1.406       .  A
C1813      H1818   1.083       .  S
C1814      C1815   1.411       .  A
C1815      C1816   1.400       .  A
C1815      F1819   1.357       .  S
C1816      H1820   1.083       .  S
C1821      C1822   1.406       .  A
C1821      C1826   1.398       .  A
C1821      H1831   1.083       .  S
C1822      C1827   1.487       .  S
C1822      C1823   1.408       .  A
C1823      C1824   1.400       .  A
C1823      F1828   1.357       .  S
C1824      C1825   1.405       .  A
C1824      H1829   1.083       .  S
C1825      C1826   1.406       .  A
C1826      F1830   1.358       .  S
C1827      C1832   1.406       .  A
C1827      C1836   1.406       .  A
C1832      C1833   1.396       .  A
C1832      F1837   1.358       .  S
C1833      C1834   1.409       .  A
C1833      H1838   1.083       .  S
C1834      C1835   1.412       .  A
C1835      C1836   1.403       .  A
C1835      F1839   1.357       .  S
C1836      H1840   1.083       .  S
C1841      C1842   1.406       .  A
C1841      C1846   1.398       .  A
C1841      H1851   1.083       .  S
C1842      C1847   1.491       .  S
C1842      C1843   1.410       .  A
C1843      C1844   1.403       .  A
C1843      F1848   1.357       .  S
C1844      C1845   1.405       .  A
C1844      H1849   1.083       .  S
C1845      C1846   1.406       .  A
C1846      F1850   1.358       .  S
C1847      C1852   1.407       .  A
C1847      C1856   1.405       .  A
C1852      C1853   1.403       .  A
C1852      F1857   1.357       .  S
C1853      C1854   1.410       .  A
C1853      H1858   1.083       .  S
C1854      C1855   1.412       .  A
C1855      C1856   1.399       .  A
C1855      F1859   1.357       .  S
C1856      H1860   1.083       .  S
C1861      C1862   1.403       .  A
C1861      C1866   1.393       .  A
C1861      H1871   1.083       .  S
C1862      C1867   1.487       .  S
C1862      C1863   1.410       .  A
C1863      C1864   1.404       .  A
C1863      F1868   1.357       .  S
C1864      C1865   1.405       .  A
C1864      H1869   1.083       .  S
C1865      C1866   1.409       .  A
C1866      F1870   1.358       .  S
C1867      C1872   1.408       .  A
C1867      C1876   1.404       .  A
C1872      C1873   1.395       .  A
C1872      F1877   1.358       .  S
C1873      C1874   1.406       .  A
C1873      H1878   1.083       .  S
C1874      C1875   1.413       .  A
C1875      C1876   1.402       .  A
C1875      F1879   1.357       .  S
C1876      H1880   1.083       .  S
C1881      C1882   1.400       .  A
C1881      C1886   1.391       .  A
C1881      H1891   1.084       .  S
C1882      C1887   1.473   1_565  S
C1882      C1883   1.405       .  A
C1883      C1884   1.399       .  A
C1883      F1888   1.357       .  S
C1884      C1885   1.405       .  A
C1884      H1889   1.083       .  S
C1885      C1886   1.410       .  A
C1886      F1890   1.358       .  S
C1887      C1892   1.406       .  A
C1887      C1896   1.402       .  A
C1892      C1893   1.394       .  A
C1892      F1897   1.358       .  S
C1893      C1894   1.403       .  A
C1893      H1898   1.084       .  S
C1894      C1895   1.405       .  A
C1895      C1896   1.396       .  A
C1895      F1899   1.357       .  S
C1896      H1900   1.083       .  S
C1901      C1902   1.403       .  A
C1901      C1906   1.395       .  A
C1901      H1911   1.083       .  S
C1902      C1907   1.485       .  S
C1902      C1903   1.408       .  A
C1903      C1904   1.403       .  A
C1903      F1908   1.357       .  S
C1904      C1905   1.405       .  A
C1904      H1909   1.083       .  S
C1905      C1906   1.409       .  A
C1906      F1910   1.358       .  S
C1907      C1912   1.407       .  A
C1907      C1916   1.404       .  A
C1912      C1913   1.397   1_655  A
C1912      F1917   1.358       .  S
C1913      C1914   1.407       .  A
C1913      H1918   1.083       .  S
C1914      C1915   1.411   1_455  A
C1915      C1916   1.401       .  A
C1915      F1919   1.357       .  S
C1916      H1920   1.083       .  S
C1921      C1922   1.406       .  A
C1921      C1926   1.395       .  A
C1921      H1931   1.083       .  S
C1922      C1927   1.488       .  S
C1922      C1923   1.409   1_545  A
C1923      C1924   1.405       .  A
C1923      F1928   1.357       .  S
C1924      C1925   1.405       .  A
C1924      H1929   1.083       .  S
C1925      C1926   1.403   1_565  A
C1926      F1930   1.358       .  S
C1927      C1932   1.405       .  A
C1927      C1936   1.407       .  A
C1932      C1933   1.391       .  A
C1932      F1937   1.358       .  S
C1933      C1934   1.407       .  A
C1933      H1938   1.083       .  S
C1934      C1935   1.412       .  A
C1935      C1936   1.406       .  A
C1935      F1939   1.357       .  S
C1936      H1940   1.083   1_545  S
C1941      C1942   1.397       .  A
C1941      C1946   1.388       .  A
C1941      H1951   1.084       .  S
C1942      C1947   1.472       .  S
C1942      C1943   1.405       .  A
C1943      C1944   1.402       .  A
C1943      F1948   1.357       .  S
C1944      C1945   1.408       .  A
C1944      H1949   1.083       .  S
C1945      C1946   1.412       .  A
C1946      F1950   1.357       .  S
C1947      C1952   1.404       .  A
C1947      C1956   1.403       .  A
C1952      C1953   1.397       .  A
C1952      F1957   1.357       .  S
C1953      C1954   1.406       .  A
C1953      H1958   1.083       .  S
C1954      C1955   1.403       .  A
C1955      C1956   1.393       .  A
C1955      F1959   1.358       .  S
C1956      H1960   1.084       .  S
C1961      C1962   1.403       .  A
C1961      C1966   1.398       .  A
C1961      H1971   1.083       .  S
C1962      C1967   1.480       .  S
C1962      C1963   1.406       .  A
C1963      C1964   1.393       .  A
C1963      F1968   1.358       .  S
C1964      C1965   1.407       .  A
C1964      H1969   1.083       .  S
C1965      C1966   1.410       .  A
C1966      F1970   1.357       .  S
C1967      C1972   1.407       .  A
C1967      C1976   1.402       .  A
C1972      C1973   1.400       .  A
C1972      F1977   1.357       .  S
C1973      C1974   1.403       .  A
C1973      H1978   1.083       .  S
C1974      C1975   1.409       .  A
C1975      C1976   1.392       .  A
C1975      F1979   1.358       .  S
C1976      H1980   1.083       .  S
