geometry optimzed in LAMMPS
_audit_creation_date              2020-11-30 
_audit_creation_method            'lammps2cif' 
_symmetry_space_group_name_H-M    'P1' 
_symmetry_Int_Tables_number       1 
_symmetry_cell_setting            triclinic 
loop_ 
_symmetry_equiv_pos_as_xyz 
  x,y,z 
_cell_length_a                    25.99554322 
_cell_length_b                    26.30779339744771 
_cell_length_c                    87.63862680869471 
_cell_angle_alpha                 89.8919416893794 
_cell_angle_beta                  90.37833076103172 
_cell_angle_gamma                 90.13135668675157 
loop_ 
_atom_site_label 
_atom_site_type_symbol 
_atom_site_fract_x 
_atom_site_fract_y 
_atom_site_fract_z 
_atom_site_charge 
N1          N  0.77372257  0.42709461  0.37453744    -0.35100
N2          N  0.74511207  0.50126573  0.39719618    -0.55700
N3          N  0.76435298  0.58090471  0.37522371    -0.35100
N4          N  0.79615788  0.50684670  0.35286389    -0.55700
C5          C  0.77421743  0.39869219  0.38741613     0.28500
C6          C  0.80057851  0.40127435  0.36393626     0.28500
C7          C  0.76135576  0.60729378  0.38841113     0.28500
C8          C  0.79002564  0.61045276  0.36519037     0.28500
C9          C  0.72809781  0.45866202  0.40408668     0.37100
C10         C  0.72201686  0.54039128  0.40428207     0.37100
C11         C  0.80004182  0.46648158  0.34345696     0.37100
C12         C  0.79641193  0.54874949  0.34395224     0.37100
C13         C  0.80180574  0.35446070  0.38501103    -0.20400
C14         C  0.81836343  0.35599993  0.37015842    -0.20400
C15         C  0.78554428  0.65396809  0.38679416    -0.20400
C16         C  0.80374587  0.65595867  0.37212656    -0.20400
C17         C  0.69389992  0.47064504  0.41559693    -0.21500
C18         C  0.68993213  0.52268767  0.41569654    -0.21500
C19         C  0.80274514  0.48272144  0.32842992    -0.21500
C20         C  0.80037804  0.53504448  0.32874294    -0.21500
C21         C  0.74635221  0.40964622  0.40076600    -0.16800
C22         C  0.80638483  0.41590944  0.34852788    -0.16800
C23         C  0.79804978  0.59890701  0.34964313    -0.16800
C24         C  0.73382688  0.59169664  0.40142774    -0.16800
H25         H  0.80840527  0.32380188  0.39303610     0.16100
H26         H  0.84038990  0.32673017  0.36452900     0.16100
H27         H  0.78914721  0.68372750  0.39524860     0.16100
H28         H  0.82419786  0.68762992  0.36708763     0.16100
H29         H  0.67442623  0.44470145  0.42323464     0.14400
H30         H  0.66693205  0.54493947  0.42345808     0.14400
H31         H  0.80729229  0.45940474  0.31836871     0.14400
H32         H  0.80265535  0.56012809  0.31896656     0.14400
H33         H  0.75087040  0.45883650  0.37250830     0.27600
H34         H  0.74443135  0.54759896  0.37266212     0.27600
N35         N  0.29424116  0.41778121  0.37306686    -0.35100
N36         N  0.27632678  0.49601615  0.35020598    -0.55700
N37         N  0.29425308  0.57321155  0.37341961    -0.35100
N38         N  0.30526014  0.49550106  0.39678334    -0.55700
C39         C  0.27786271  0.38869735  0.36125617     0.28500
C40         C  0.29433688  0.38819794  0.38571001     0.28500
C41         C  0.27563488  0.60212937  0.36187432     0.28500
C42         C  0.29319060  0.60201991  0.38618593     0.28500
C43         C  0.27680671  0.45528249  0.34087765     0.37100
C44         C  0.27637672  0.53744893  0.34110486     0.37100
C45         C  0.31833972  0.45409929  0.40508528     0.37100
C46         C  0.31893368  0.53647592  0.40521605     0.37100
C47         C  0.26793592  0.33979923  0.36647031    -0.20400
C48         C  0.27857093  0.33943947  0.38186191    -0.20400
C49         C  0.26294172  0.64990126  0.36739619    -0.20400
C50         C  0.27433080  0.64989714  0.38269674    -0.20400
C51         C  0.27695246  0.47091605  0.32575382    -0.21500
C52         C  0.27664997  0.52308897  0.32590355    -0.21500
C53         C  0.33907960  0.46892744  0.41901549    -0.21500
C54         C  0.33946710  0.52111751  0.41908489    -0.21500
C55         C  0.27363385  0.40424847  0.34578572    -0.16800
C56         C  0.31100706  0.40302876  0.40047151    -0.16800
C57         C  0.31180866  0.58760029  0.40073047    -0.16800
C58         C  0.27223837  0.58789015  0.34632853    -0.16800
H59         H  0.25479382  0.30750369  0.35986436     0.16100
H60         H  0.27522209  0.30687930  0.38936309     0.16100
H61         H  0.24754770  0.68180644  0.36104377     0.16100
H62         H  0.26940666  0.68164994  0.39038181     0.16100
H63         H  0.27663651  0.44721889  0.31567004     0.14400
H64         H  0.27595434  0.54762672  0.31597680     0.14400
H65         H  0.35286820  0.44470048  0.42815339     0.14400
H66         H  0.35339385  0.54500280  0.42827287     0.14400
H67         H  0.30979761  0.45402001  0.37228980     0.27600
H68         H  0.31245971  0.53832832  0.37231698     0.27600
C69         C  0.42277630  0.88489653  0.46532699     0.43900
N70         N  0.43889566  0.94442928  0.48143366     0.02800
C71         C  0.65648719  0.09843245  0.48302449    -0.05000
H72         H  0.68814726  0.89575140  0.48837364     0.08300
C73         C  0.59132759  0.90157936  0.53702752    -0.05400
Co74       Co  0.53286147  0.00357519  0.47256783     0.74200
N75         N  0.62545783  0.94737129  0.48367029    -0.24600
Co76       Co  0.62558497  0.00017941  0.50130398     0.74100
C77         C  0.63707518  0.87597025  0.53153881     0.44000
N78         N  0.47186789  0.94015593  0.52638260     0.02500
N79         N  0.62259304  0.94161399  0.51759268     0.02600
N80         N  0.59407070  0.09843205  0.46493924    -0.45400
H81         H  0.49234688  0.90650678  0.45062251     0.08300
N82         N  0.58977647  0.94858161  0.47289312     0.02800
N83         N  0.62302596  0.05339899  0.51899567     0.02600
C84         C  0.64182344  0.11143705  0.53529666     0.44200
N85         N  0.43646342  0.94063866  0.51552219    -0.24000
C86         C  0.47038422  0.09992398  0.46442157    -0.04900
N87         N  0.40604484  0.90692206  0.47834041    -0.45100
N88         N  0.65786714  0.08873879  0.52233899    -0.45400
C89         C  0.42422418  0.12406245  0.47007608     0.44000
N90         N  0.58933917  0.05923583  0.47425466     0.02800
N91         N  0.43479249  0.05148006  0.51684288    -0.24000
N92         N  0.47600341  0.94782472  0.47127133    -0.24500
N93         N  0.47071718  0.05127299  0.52756369     0.02500
H94         H  0.36879854  0.09952578  0.51280343     0.08400
H95         H  0.56990102  0.09338301  0.54955306     0.08400
N96         N  0.62513858  0.05823678  0.48499628    -0.24600
N97         N  0.58518706  0.94131138  0.52769706    -0.24200
N98         N  0.43771008  0.05632448  0.48294933     0.02800
C99         C  0.63502954  0.88349776  0.46755258     0.44200
C100        C  0.40530716  0.90042731  0.51742339    -0.05500
N101        N  0.58522292  0.05174833  0.52896197    -0.24200
H102        H  0.56688335  0.89202784  0.54655235     0.08400
N103        N  0.59398973  0.91091578  0.46305667    -0.45400
H104        H  0.37268764  0.89074204  0.51027233     0.08400
C105        C  0.42220710  0.11389569  0.53349245     0.44100
C106        C  0.46872412  0.91218060  0.46058453    -0.04900
Co107      Co  0.43545184  0.99805209  0.49918004     0.73800
N108        N  0.46714854  0.90094694  0.53571881    -0.45100
C109        C  0.63522433  0.12522569  0.46974902     0.44300
N110        N  0.40514927  0.09480696  0.48139410    -0.45100
Co111      Co  0.52811135  0.99626231  0.52795086     0.73900
C112        C  0.59367542  0.08700770  0.53966445    -0.05500
C113        C  0.65641318  0.90756443  0.48116991    -0.05000
N114        N  0.47584248  0.05844714  0.47309737    -0.24500
N115        N  0.65483411  0.90289301  0.51947405    -0.45300
H116        H  0.68924418  0.10798166  0.49013502     0.08300
C117        C  0.40199480  0.08964777  0.51968140    -0.05400
Cl118      Cl  0.53049786  0.99953487  0.50025394    -0.48400
C119        C  0.42624117  0.87404325  0.53075788     0.44100
H120        H  0.49493439  0.11108473  0.45508197     0.08300
N121        N  0.46466732  0.08792807  0.53770834    -0.45100
N122        N  0.76433338  0.57656667  0.62361908    -0.35100
N123        N  0.78436583  0.50831649  0.64881852    -0.55700
N124        N  0.77801111  0.42372562  0.62748900    -0.35100
N125        N  0.75322294  0.49242028  0.60267673    -0.55700
C126        C  0.75760302  0.60751889  0.63574817     0.28500
C127        C  0.74167327  0.59920749  0.61146579     0.28500
C128        C  0.77751124  0.39949507  0.64110645     0.28500
C129        C  0.75968241  0.39074026  0.61692215     0.28500
C130        C  0.79799668  0.55283523  0.65535622     0.37100
C131        C  0.80568752  0.47128057  0.65743563     0.37100
C132        C  0.75523681  0.53106189  0.59251551     0.37100
C133        C  0.76072541  0.44921514  0.59470840     0.37100
C134        C  0.72968474  0.64993216  0.63133085    -0.20400
C135        C  0.71950300  0.64464313  0.61598632    -0.20400
C136        C  0.75862528  0.35056440  0.63920724    -0.20400
C137        C  0.74711380  0.34510762  0.62394771    -0.20400
C138        C  0.82801488  0.54407081  0.66822733    -0.21500
C139        C  0.83276385  0.49222022  0.66957294    -0.21500
C140        C  0.76414556  0.51237371  0.57800171    -0.21500
C141        C  0.76734516  0.46038028  0.57938155    -0.21500
C142        C  0.78097495  0.60084699  0.65020438    -0.16800
C143        C  0.74542556  0.58238455  0.59618543    -0.16800
C144        C  0.75753391  0.39980277  0.60099667    -0.16800
C145        C  0.79826364  0.41888957  0.65487144    -0.16800
H146        H  0.71901840  0.68197625  0.63835313     0.16100
H147        H  0.69932587  0.67183689  0.60887038     0.16100
H148        H  0.75434611  0.32156097  0.64788742     0.16100
H149        H  0.73207726  0.31106915  0.61860916     0.16100
H150        H  0.84454841  0.57199860  0.67588084     0.14400
H151        H  0.85358324  0.47225453  0.67847337     0.14400
H152        H  0.76725409  0.53381300  0.56749821     0.14400
H153        H  0.77345069  0.43381222  0.57015848     0.14400
H154        H  0.78937991  0.54581389  0.62316851     0.27600
H155        H  0.79592594  0.45832765  0.62527982     0.27600
N156        N  0.26042490  0.42382385  0.62283225    -0.35100
N157        N  0.24032522  0.50366452  0.64484328    -0.55700
N158        N  0.26557133  0.57742190  0.62221612    -0.35100
N159        N  0.28223377  0.49725687  0.59945769    -0.55700
C160        C  0.23459404  0.39811074  0.63372342     0.28500
C161        C  0.26018125  0.39456460  0.61016655     0.28500
C162        C  0.24314820  0.60717505  0.63285668     0.28500
C163        C  0.26496905  0.60347647  0.60893692     0.28500
C164        C  0.23997783  0.46292934  0.65416690     0.37100
C165        C  0.24406155  0.54490759  0.65390336     0.37100
C166        C  0.30277635  0.45536437  0.59298915     0.37100
C167        C  0.30383344  0.53767212  0.59244814     0.37100
C168        C  0.21701141  0.35225284  0.62785133    -0.20400
C169        C  0.23325711  0.35000201  0.61294551    -0.20400
C170        C  0.22765629  0.65253535  0.62621492    -0.20400
C171        C  0.24150040  0.65021819  0.61108869    -0.20400
C172        C  0.24371515  0.47818038  0.66926721    -0.21500
C173        C  0.24646733  0.53035372  0.66909692    -0.21500
C174        C  0.33734366  0.46922016  0.58174835    -0.21500
C175        C  0.33787313  0.52148031  0.58136495    -0.21500
C176        C  0.23130287  0.41282231  0.64917570    -0.16800
C177        C  0.28873480  0.40505424  0.59687082    -0.16800
C178        C  0.29145943  0.58880686  0.59563157    -0.16800
C179        C  0.23934401  0.59521715  0.64855032    -0.16800
H180        H  0.19601110  0.32282615  0.63382434     0.09300
H181        H  0.22725133  0.31858669  0.60517269     0.16100
H182        H  0.20922755  0.68435304  0.63174305     0.16100
H183        H  0.23632254  0.68011367  0.60271885     0.16100
H184        H  0.24332705  0.45429853  0.67933588     0.14400
H185        H  0.24854252  0.55479227  0.67900376     0.14400
H186        H  0.36000085  0.44440365  0.57462820     0.14400
H187        H  0.36100346  0.54482246  0.57387957     0.14400
H188        H  0.28327146  0.45583890  0.62459793     0.27600
H189        H  0.28650479  0.54441691  0.62428463     0.27600
C190        C  0.94374921  0.12700025  0.28596783     0.43900
N191        N  0.98541573  0.09498420  0.26723993     0.02800
C192        C  0.96168572  0.86258033  0.23163448    -0.05000
H193        H  0.00392419  0.84772369  0.28952885     0.08300
C194        C  0.16983483  0.93717186  0.28172200    -0.05400
Co195      Co  0.94383279  0.99587391  0.25650607     0.74200
N196        N  0.98679209  0.91097010  0.27481834    -0.24600
Co197      Co  0.03817614  0.90259685  0.25695867     0.74100
C198        C  0.15004913  0.89444218  0.29077159     0.44000
N199        N  0.13344955  0.05844794  0.26609065     0.02500
N200        N  0.09789145  0.91027966  0.27237623     0.02600
N201        N  0.90134282  0.92415733  0.23277934    -0.45400
H202        H  0.88849234  0.05823238  0.28675575     0.08300
N203        N  0.95053421  0.94587930  0.27494017     0.02800
N204        N  0.09266448  0.89619710  0.23939060     0.02600
C205        C  0.14251886  0.87237746  0.22135013     0.44200
N206        N  0.09732220  0.09332222  0.26467370    -0.24000
C207        C  0.90200080  0.04583237  0.22694421    -0.04900
N208        N  0.98243059  0.13532177  0.27612647    -0.45100
N209        N  0.10172206  0.85769699  0.22993240    -0.45400
C210        C  0.91882985  0.08521320  0.21647434     0.44000
N211        N  0.94001345  0.93361972  0.24214046     0.02800
N212        N  0.09039733  0.07682503  0.23182376    -0.24000
N213        N  0.95077362  0.05996651  0.27051778    -0.24500
N214        N  0.12609634  0.04165814  0.23330034     0.02500
H215        H  0.08098673  0.13803301  0.21556783     0.08400
H216        H  0.19336475  0.94288186  0.22380199     0.08400
N217        N  0.97607820  0.89839536  0.24175447    -0.24600
N218        N  0.13410046  0.94497272  0.27080237    -0.24200
N219        N  0.97451392  0.07788119  0.23444604     0.02800
C220        C  0.93743995  0.90132538  0.29517407     0.44200
C221        C  0.10692588  0.13095394  0.27443979    -0.05500
N222        N  0.12695743  0.93282150  0.23793266    -0.24200
H223        H  0.20639908  0.95666021  0.28262684     0.08400
N224        N  0.91891053  0.94036514  0.28666266    -0.45400
H225        H  0.08499020  0.16562349  0.27551797     0.08400
C226        C  0.14624081  0.07969839  0.21245753     0.44100
C227        C  0.92234864  0.07678618  0.28226576    -0.04900
Co228      Co  0.03686986  0.08693604  0.24933254     0.73800
N229        N  0.16925740  0.07105558  0.27626547    -0.45100
C230        C  0.91202424  0.88022889  0.22569513     0.44300
N231        N  0.96341699  0.10463291  0.22199266    -0.45100
Co232      Co  0.13121403  0.99461069  0.25216240     0.73900
C233        C  0.15930871  0.92146112  0.22678218    -0.05500
C234        C  0.98222257  0.88196875  0.28724384    -0.05000
N235        N  0.93887176  0.04374244  0.23762960    -0.24500
N236        N  0.10575117  0.87989380  0.28411865    -0.45300
H237        H  0.98147051  0.82715952  0.22957511     0.08300
C238        C  0.10039560  0.10356021  0.21905576    -0.05400
Cl239      Cl  0.03746816  0.99499130  0.25372931    -0.48400
C240        C  0.15376055  0.11578030  0.28218486     0.44100
H241        H  0.86702569  0.02349688  0.22676831     0.08300
N242        N  0.15960402  0.04206547  0.22208063    -0.45100
C243        C  0.91581484  0.62570944  0.96862104     0.43900
N244        N  0.97630189  0.60627912  0.98442790     0.02800
C245        C  0.12814752  0.39027988  0.98538248    -0.05000
H246        H  0.92782076  0.35356537  0.98887094     0.08300
C247        C  0.92256805  0.45437358  0.03720208    -0.05400
Co248      Co  0.03204440  0.51216372  0.97510666     0.74200
N249        N  0.97572179  0.41977966  0.98552225    -0.24600
Co250      Co  0.02853130  0.41980621  0.00344633     0.74100
C251        C  0.89766322  0.40904146  0.03100777     0.44000
N252        N  0.96855799  0.57278182  0.02878398     0.02500
N253        N  0.96846113  0.42215148  0.01917676     0.02600
N254        N  0.12666365  0.45095901  0.96707987    -0.45400
H255        H  0.93144026  0.55364887  0.95427452     0.08300
N256        N  0.97613202  0.45578594  0.97502558     0.02800
N257        N  0.08133168  0.42202921  0.02148963     0.02600
C258        C  0.14350506  0.40700127  0.03703369     0.44200
N259        N  0.97180616  0.60867325  0.01830221    -0.24000
C260        C  0.12621566  0.57637328  0.96567139    -0.04900
N261        N  0.94060109  0.64086191  0.98145542    -0.45100
N262        N  0.11937884  0.38972508  0.02433867    -0.45400
C263        C  0.15075665  0.62305725  0.97089892     0.44000
N264        N  0.08805163  0.45623688  0.97664005     0.02800
N265        N  0.08449099  0.60496426  0.01988757    -0.24000
N266        N  0.97653923  0.56915199  0.97433137    -0.24500
N267        N  0.08039868  0.57065718  0.03083658     0.02500
H268        H  0.13993406  0.66478358  0.01568504     0.08400
H269        H  0.12328328  0.47599372  0.05187093     0.08400
N270        N  0.08775817  0.42127177  0.98746278    -0.24600
N271        N  0.96593937  0.45956121  0.02916862    -0.24200
N272        N  0.08854936  0.60460077  0.98586522     0.02800
C273        C  0.91394876  0.40717178  0.96843675     0.44200
C274        C  0.93322818  0.64191388  0.02037325    -0.05500
N275        N  0.07871189  0.45872413  0.03168511    -0.24200
H276        H  0.91054300  0.47867389  0.04644568     0.08400
N277        N  0.93973840  0.44972207  0.96457939    -0.45400
H278        H  0.92566828  0.67522891  0.01347577     0.08400
C279        C  0.14796247  0.61283420  0.03677646     0.44100
C280        C  0.93962984  0.57785020  0.96393378    -0.04900
Co281      Co  0.03046025  0.60749343  0.00215501     0.73800
N282        N  0.92927564  0.57930677  0.03804824    -0.45100
C283        C  0.15387302  0.41036758  0.97182052     0.44300
N284        N  0.12542735  0.63858896  0.98347985    -0.45100
Co285      Co  0.02310413  0.51542947  0.03047477     0.73900
C286        C  0.11647857  0.45242289  0.04196454    -0.05500
C287        C  0.93775912  0.38689266  0.98226719    -0.05000
N288        N  0.08825387  0.56811306  0.97557763    -0.24500
N289        N  0.92857805  0.39066887  0.01998775    -0.45300
H290        H  0.13666610  0.35661167  0.99202117     0.08300
C291        C  0.12656791  0.63341518  0.02260768    -0.05400
Cl292      Cl  0.02848221  0.51374091  0.00279546    -0.48400
C293        C  0.90492707  0.62188626  0.03343674     0.44100
H294        H  0.13437100  0.55329283  0.95578574     0.08300
N295        N  0.11730297  0.57434708  0.04121282    -0.45100
N296        N  0.60548499  0.82831095  0.88589064    -0.35100
N297        N  0.52172694  0.84650840  0.86377617    -0.55700
N298        N  0.44752705  0.81578269  0.88599846    -0.35100
N299        N  0.53102140  0.79373635  0.90776461    -0.55700
C300        C  0.63164849  0.83128598  0.87263249     0.28500
C301        C  0.63681803  0.80527174  0.89619752     0.28500
C302        C  0.41744613  0.81695264  0.87330647     0.28500
C303        C  0.42239147  0.78780921  0.89654003     0.28500
C304        C  0.56177689  0.86552801  0.85589583     0.37100
C305        C  0.47874015  0.86031572  0.85608279     0.37100
C306        C  0.57323013  0.79278946  0.91686909     0.37100
C307        C  0.49018196  0.78540520  0.91688898     0.37100
C308        C  0.68048753  0.81102420  0.87464087    -0.20400
C309        C  0.68369733  0.79453895  0.88947981    -0.20400
C310        C  0.37244838  0.79006521  0.87591416    -0.20400
C311        C  0.37547878  0.77179971  0.89057103    -0.20400
C312        C  0.54423645  0.89192686  0.84318404    -0.21500
C313        C  0.49148907  0.88881741  0.84334452    -0.21500
C314        C  0.55909744  0.78403032  0.93186673    -0.21500
C315        C  0.50644617  0.77919122  0.93187235    -0.21500
C316        C  0.61368555  0.85373019  0.85892685    -0.16800
C317        C  0.62443846  0.79376815  0.91152575    -0.16800
C318        C  0.43908676  0.77860277  0.91168801    -0.16800
C319        C  0.42884033  0.84273265  0.85955665    -0.16800
H320        H  0.71078293  0.80820612  0.86627537     0.16100
H321        H  0.71671518  0.77618609  0.89465219     0.16100
H322        H  0.34066013  0.78412991  0.86807662     0.16100
H323        H  0.34625793  0.74931126  0.89618977     0.16100
H324        H  0.56711961  0.91014736  0.83445957     0.14400
H325        H  0.46561110  0.90425192  0.83480102     0.14400
H326        H  0.58422587  0.77998933  0.94168920     0.14400
H327        H  0.48294979  0.77075116  0.94171150     0.14400
H328        H  0.57009539  0.84501586  0.88808062     0.27600
H329        H  0.48064219  0.83703810  0.88795897     0.27600
N330        N  0.44843399  0.23702649  0.87971152    -0.35100
N331        N  0.52651409  0.21030396  0.85755719    -0.55700
N332        N  0.60415531  0.24147532  0.87941588    -0.35100
N333        N  0.52671102  0.26382550  0.90202376    -0.55700
C334        C  0.41917205  0.21413814  0.86890902     0.28500
C335        C  0.41910013  0.24200988  0.89232069     0.28500
C336        C  0.63299841  0.21664865  0.86907019     0.28500
C337        C  0.63307417  0.24587351  0.89220270     0.28500
C338        C  0.48471715  0.20813169  0.84836231     0.37100
C339        C  0.56800507  0.20953356  0.84836854     0.37100
C340        C  0.48500039  0.28111078  0.90947095     0.37100
C341        C  0.56810017  0.28430987  0.90911861     0.37100
C342        C  0.37067816  0.20426294  0.87472951    -0.20400
C343        C  0.37047965  0.22221184  0.88943421    -0.20400
C344        C  0.68052365  0.20474414  0.87540757    -0.20400
C345        C  0.68058279  0.22330356  0.89002843    -0.20400
C346        C  0.49968854  0.20524785  0.83323196    -0.21500
C347        C  0.55262496  0.20622399  0.83323698    -0.21500
C348        C  0.50015690  0.31138505  0.92166190    -0.21500
C349        C  0.55278726  0.31399584  0.92129365    -0.21500
C350        C  0.43343777  0.20597197  0.85355677    -0.16800
C351        C  0.43354431  0.26853389  0.90572851    -0.16800
C352        C  0.61953974  0.27402430  0.90522029    -0.16800
C353        C  0.61939159  0.20878732  0.85365001    -0.16800
H354        H  0.33820939  0.18724211  0.86885083     0.16100
H355        H  0.33762366  0.22177666  0.89693106     0.16100
H356        H  0.71231145  0.18568321  0.86994326     0.16100
H357        H  0.71235989  0.22137438  0.89805184     0.16100
H358        H  0.47506362  0.20245698  0.82326031     0.14400
H359        H  0.57696133  0.20428300  0.82328310     0.14400
H360        H  0.47603182  0.32978459  0.92999679     0.14400
H361        H  0.57691761  0.33488282  0.92920862     0.14400
H362        H  0.48367105  0.25448198  0.87788640     0.27600
H363        H  0.57009485  0.26079943  0.87717003     0.27600
C364        C  0.90442307  0.89036593  0.71500048     0.43900
N365        N  0.92331046  0.95039532  0.73056949     0.02800
C366        C  0.14371950  0.09776970  0.72953168    -0.05000
H367        H  0.17486524  0.89829829  0.73590437     0.08300
C368        C  0.09142057  0.91333002  0.78758276    -0.05400
Co369      Co  0.01829946  0.00475084  0.72082235     0.74200
N370        N  0.11006644  0.94711940  0.73174779    -0.24600
Co371      Co  0.11200586  0.00187042  0.74895100     0.74100
C372        C  0.14240532  0.89504099  0.78290376     0.44000
N373        N  0.95846636  0.94585240  0.77558455     0.02500
N374        N  0.11138576  0.94571055  0.76575049     0.02600
N375        N  0.08122832  0.09554156  0.71153253    -0.45400
H376        H  0.97470727  0.90789275  0.70006382     0.08300
N377        N  0.07415281  0.94812753  0.72106861     0.02800
N378        N  0.11154955  0.05564611  0.76631927     0.02600
C379        C  0.14114598  0.10633474  0.78357812     0.44200
N380        N  0.92424578  0.94765777  0.76441869    -0.24000
C381        C  0.95745617  0.10296688  0.71262607    -0.04900
N382        N  0.88844239  0.91451817  0.72774779    -0.45100
N383        N  0.15049891  0.08590479  0.76975673    -0.45400
C384        C  0.91296147  0.12915499  0.71880885     0.44000
N385        N  0.07566173  0.05863094  0.72156337     0.02800
N386        N  0.92610644  0.05780440  0.76561656    -0.24000
N387        N  0.96036454  0.95106891  0.72038945    -0.24500
N388        N  0.96095550  0.05581561  0.77661439     0.02500
H389        H  0.85493044  0.09855478  0.76326434     0.08400
H390        H  0.07346979  0.08722225  0.79950514     0.08400
N391        N  0.11151866  0.05869258  0.73223656    -0.24600
N392        N  0.07553903  0.94454903  0.77634312    -0.24200
N393        N  0.92632639  0.06163314  0.73178245     0.02800
C394        C  0.12069076  0.88350936  0.71526914     0.44200
C395        C  0.88545816  0.91633308  0.76760490    -0.05500
N396        N  0.07628921  0.05454625  0.77707536    -0.24200
H397        H  0.07388621  0.91129441  0.79871825     0.08400
N398        N  0.07915406  0.91104322  0.71102722    -0.45400
H399        H  0.84916230  0.91692312  0.76153395     0.08400
C400        C  0.90714162  0.11240043  0.78412470     0.44100
C401        C  0.95170786  0.91480805  0.71008296    -0.04900
Co402      Co  0.92392843  0.00434169  0.74810100     0.73800
N403        N  0.94354334  0.91541683  0.78677564    -0.45100
C404        C  0.12317283  0.12219958  0.71568076     0.44300
N405        N  0.89528262  0.10140277  0.73062962    -0.45100
Co406      Co  0.01771190  0.99994498  0.77669173     0.73900
C407        C  0.09129094  0.08566210  0.78840585    -0.05500
C408        C  0.14140179  0.90765124  0.72910096    -0.05000
N409        N  0.96279056  0.06161610  0.72139212    -0.24500
N410        N  0.15141208  0.91691502  0.76922865    -0.45300
H411        H  0.17781562  0.10653256  0.73614957     0.08300
C412        C  0.89101236  0.09286601  0.76923568    -0.05400
Cl413      Cl  0.01800486  0.00258062  0.74868501    -0.48400
C414        C  0.89732315  0.89544678  0.78267619     0.44100
H415        H  0.98171637  0.11346496  0.70314922     0.08300
N416        N  0.95066172  0.08727089  0.78796431    -0.45100
N417        N  0.53899550  0.18242142  0.14265140    -0.35100
N418        N  0.45518274  0.21513153  0.12292363    -0.55700
N419        N  0.52745448  0.24106556  0.09898149    -0.35100
N420        N  0.61148704  0.21214430  0.11917965    -0.55700
C421        C  0.49978030  0.18275414  0.15273534     0.28500
C422        C  0.58345031  0.18164389  0.15076533     0.28500
C423        C  0.48438645  0.26468923  0.09394114     0.28500
C424        C  0.56779987  0.26371201  0.09202909     0.28500
C425        C  0.42785774  0.19234730  0.13407789     0.37100
C426        C  0.42193001  0.22341164  0.11126951     0.37100
C427        C  0.64406616  0.18868268  0.12896968     0.37100
C428        C  0.63789465  0.21991899  0.10614967     0.37100
C429        C  0.51945224  0.18127852  0.16746811    -0.20400
C430        C  0.57233070  0.18070567  0.16622937    -0.20400
C431        C  0.49741772  0.30225033  0.08353802    -0.20400
C432        C  0.55009091  0.30171084  0.08235069    -0.20400
C433        C  0.37707507  0.18612604  0.12946397    -0.21500
C434        C  0.37340709  0.20559599  0.11498184    -0.21500
C435        C  0.69125210  0.18098988  0.12206713    -0.21500
C436        C  0.68729743  0.20072017  0.10758232    -0.21500
C437        C  0.44686953  0.18147574  0.14886519    -0.16800
C438        C  0.63351965  0.17917256  0.14451670    -0.16800
C439        C  0.61999409  0.24981111  0.09381125    -0.16800
C440        C  0.43353469  0.25196177  0.09808717    -0.16800
H441        H  0.49795635  0.18043343  0.17800075     0.16100
H442        H  0.59946545  0.17931626  0.17564119     0.16100
H443        H  0.47168123  0.32765921  0.07749076     0.16100
H444        H  0.57272810  0.32666163  0.07520231     0.16100
H445        H  0.34561768  0.17025476  0.13596476     0.14400
H446        H  0.33866798  0.20770822  0.10813708     0.14400
H447        H  0.72538674  0.16422839  0.12709249     0.14400
H448        H  0.71778107  0.20231029  0.09924011     0.14400
H449        H  0.53550919  0.17748931  0.13093104     0.27600
H450        H  0.52882283  0.20827910  0.10563211     0.27600
N451        N  0.53412169  0.72013505  0.10973361    -0.35100
N452        N  0.61103004  0.73939962  0.13291319    -0.55700
N453        N  0.53003519  0.75227861  0.15542837    -0.35100
N454        N  0.45321829  0.72822665  0.13256383    -0.55700
C455        C  0.57708885  0.70480950  0.10247035     0.28500
C456        C  0.49367523  0.69967199  0.10217558     0.28500
C457        C  0.57203439  0.75186587  0.16461422     0.28500
C458        C  0.48827607  0.74603736  0.16439111     0.28500
C459        C  0.64145414  0.74049878  0.12046954     0.37100
C460        C  0.63926235  0.75874528  0.14450901     0.37100
C461        C  0.42435228  0.72691288  0.11969194     0.37100
C462        C  0.42183010  0.74394172  0.14384487     0.37100
C463        C  0.56373405  0.67439767  0.09014722    -0.20400
C464        C  0.51099123  0.67135915  0.08991800    -0.20400
C465        C  0.55682656  0.74552295  0.17964182    -0.20400
C466        C  0.50393831  0.74166107  0.17949321    -0.20400
C467        C  0.68931413  0.76030870  0.12416700    -0.21500
C468        C  0.68805011  0.77166696  0.13941938    -0.21500
C469        C  0.37428746  0.74128481  0.12279923    -0.21500
C470        C  0.37273594  0.75240887  0.13808884    -0.21500
C471        C  0.62776283  0.72009797  0.10613183    -0.16800
C472        C  0.44153044  0.70858561  0.10549597    -0.16800
C473        C  0.43640235  0.74842573  0.15938320    -0.16800
C474        C  0.62313067  0.76110857  0.15985792    -0.16800
H475        H  0.58929425  0.65662262  0.08205960     0.16100
H476        H  0.48801348  0.65091759  0.08160146     0.16100
H477        H  0.58118917  0.74464575  0.18969980     0.16100
H478        H  0.47970138  0.73718124  0.18940283     0.16100
H479        H  0.72200671  0.76524855  0.11672288     0.14400
H480        H  0.71981302  0.78690899  0.14602678     0.14400
H481        H  0.34217331  0.74315425  0.11489448     0.14400
H482        H  0.33914901  0.76494703  0.14424918     0.14400
H483        H  0.53207381  0.74769678  0.11819377     0.27600
H484        H  0.52956640  0.76286960  0.14401340     0.27600
C485        C  0.31580619  0.21904967  0.82818034     0.14200
C486        C  0.30718140  0.16831769  0.82384003     0.01100
C487        C  0.34136089  0.13034895  0.82890197     0.16100
C488        C  0.38349206  0.14289936  0.83814006     0.25500
C489        C  0.39187606  0.19349036  0.84252087    -0.40800
C490        C  0.35792472  0.23153117  0.83747365     0.32600
C491        C  0.26413619  0.15493350  0.81345444     0.01200
F492        F  0.33332485  0.08094160  0.82509094    -0.13100
F493        F  0.36555780  0.28064869  0.84166146    -0.13700
C494        C  0.27478241  0.13211514  0.79939791     0.16100
C495        C  0.23493237  0.11722895  0.78966539     0.25500
C496        C  0.18309303  0.12487962  0.79375863    -0.40800
C497        C  0.17243585  0.14887219  0.80775921     0.32500
C498        C  0.21269812  0.16377292  0.81752506     0.14200
F499        F  0.32417827  0.12418374  0.79506317    -0.13100
F500        F  0.12324741  0.15819133  0.81200639    -0.13600
F501        F  0.24758478  0.09407187  0.77638483    -0.15900
F502        F  0.20145500  0.18571257  0.83111075    -0.14500
F503        F  0.28393054  0.25649969  0.82322522    -0.14500
F504        F  0.41547454  0.10559545  0.84313577    -0.15900
C505        C  0.74100756  0.22626654  0.83075068     0.14200
C506        C  0.74839468  0.17710746  0.82498489     0.01100
C507        C  0.71202425  0.13891374  0.82808612     0.16100
C508        C  0.66880446  0.14968079  0.83690150     0.25500
C509        C  0.66166961  0.19868011  0.84280545    -0.40800
C510        C  0.69798817  0.23694092  0.83966524     0.32600
C511        C  0.79305722  0.16563579  0.81529924     0.01200
F512        F  0.71842265  0.09124006  0.82251202    -0.13100
F513        F  0.69214429  0.28431331  0.84552606    -0.13700
C514        C  0.83104406  0.13159568  0.82035386     0.16100
C515        C  0.87003786  0.11611310  0.81048282     0.25500
C516        C  0.87116899  0.13416948  0.79533867    -0.40800
C517        C  0.83438905  0.17008854  0.79057081     0.32500
C518        C  0.79575726  0.18585135  0.80050748     0.14200
F519        F  0.82946506  0.11232596  0.83473081    -0.13100
F520        F  0.83519382  0.18912583  0.77616458    -0.13600
F521        F  0.90470509  0.08125873  0.81549922    -0.15900
F522        F  0.75945219  0.21901847  0.79546962    -0.14500
F523        F  0.77603879  0.26348977  0.82801479    -0.14500
F524        F  0.63462184  0.11205922  0.84003925    -0.15900
C525        C  0.34964251  0.82126414  0.82349955     0.14200
C526        C  0.30677926  0.85259688  0.82605131     0.01100
C527        C  0.30465256  0.88130152  0.83956093     0.16100
C528        C  0.34463603  0.87877179  0.85032482     0.25500
C529        C  0.38741682  0.84743160  0.84777857    -0.40800
C530        C  0.38954389  0.81859669  0.83430171     0.32600
C531        C  0.26530091  0.85749864  0.81439601     0.01200
F532        F  0.26425445  0.91266891  0.84215907    -0.13100
F533        F  0.43000096  0.78725700  0.83175125    -0.13700
C534        C  0.21409303  0.84512151  0.81792565     0.16100
C535        C  0.17424920  0.85524258  0.80748026     0.25500
C536        C  0.18482470  0.87847948  0.79333324    -0.40800
C537        C  0.23672703  0.88809250  0.78953505     0.32500
C538        C  0.27636170  0.87768907  0.79995544     0.14200
F539        F  0.20267880  0.82347746  0.83156966    -0.13100
F540        F  0.24941962  0.90958380  0.77597304    -0.13600
F541        F  0.12541105  0.84231596  0.81126991    -0.15900
F542        F  0.32552119  0.88964536  0.79618799    -0.14500
F543        F  0.35245125  0.79269000  0.81064981    -0.14500
F544        F  0.34175875  0.90702077  0.86323705    -0.15900
C545        C  0.82264048  0.88703420  0.81959817     0.14200
C546        C  0.77343376  0.87355651  0.81420769     0.01100
C547        C  0.76655124  0.86253210  0.79866396     0.16100
C548        C  0.80791649  0.86567336  0.78864526     0.25500
C549        C  0.85654501  0.88258319  0.79380719    -0.40800
C550        C  0.86371315  0.89197121  0.80950273     0.32600
C551        C  0.72968182  0.87012238  0.82487243     0.01200
F552        F  0.71933290  0.85017187  0.79305294    -0.13100
F553        F  0.90998655  0.90730049  0.81511778    -0.13700
C554        C  0.71811724  0.91103562  0.83460447     0.16100
C555        C  0.67951394  0.90615260  0.84551672     0.25500
C556        C  0.65115728  0.86096724  0.84653141    -0.40800
C557        C  0.66093683  0.82094793  0.83642146     0.32500
C558        C  0.70029319  0.82523618  0.82575516     0.14200
F559        F  0.74442675  0.95555484  0.83359851    -0.13100
F560        F  0.63368834  0.77696312  0.83735717    -0.13600
F561        F  0.67038582  0.94498448  0.85530641    -0.15900
F562        F  0.71111662  0.78474610  0.81675197    -0.14500
F563        F  0.83095788  0.89559591  0.83469075    -0.14500
F564        F  0.79989610  0.85252730  0.77385216    -0.15900
C565        C  0.31591537  0.32829772  0.08655651     0.14200
C566        C  0.30950947  0.31427436  0.07117743     0.01100
C567        C  0.34362420  0.27902412  0.06473238     0.16100
C568        C  0.38362923  0.25834266  0.07350526     0.25500
C569        C  0.39028715  0.27283669  0.08881939    -0.40800
C570        C  0.35620662  0.30807050  0.09526082     0.32600
C571        C  0.26810778  0.33754906  0.06180083     0.01200
F572        F  0.33894147  0.26563871  0.04983436    -0.13100
F573        F  0.36240139  0.32325357  0.10996265    -0.13700
C574        C  0.26595561  0.39060033  0.06003690     0.16100
C575        C  0.22600479  0.41301937  0.05168562     0.25500
C576        C  0.18769979  0.38275274  0.04480670    -0.40800
C577        C  0.19072724  0.32958600  0.04613331     0.32500
C578        C  0.23038608  0.30715969  0.05469129     0.14200
F579        F  0.30288051  0.42071957  0.06633204    -0.13100
F580        F  0.15401307  0.29947982  0.03974535    -0.13600
F581        F  0.22530818  0.46437562  0.05011090    -0.15900
F582        F  0.23095062  0.25589254  0.05649544    -0.14500
F583        F  0.28290708  0.36142978  0.09316989    -0.14500
F584        F  0.41616491  0.22442067  0.06705091    -0.15900
C585        C  0.76947795  0.39278607  0.05042709     0.14200
C586        C  0.76775151  0.34007704  0.05275122     0.01100
C587        C  0.80558998  0.30926480  0.04609906     0.16100
C588        C  0.84670054  0.33129844  0.03816045     0.25500
C589        C  0.85044998  0.38443953  0.03685604    -0.40800
C590        C  0.81010322  0.41456543  0.04236473     0.32600
C591        C  0.72886270  0.31771139  0.06303040     0.01200
F592        F  0.80428012  0.25809547  0.04807264    -0.13100
F593        F  0.80977331  0.46520010  0.03980208    -0.13700
C594        C  0.69198193  0.28315166  0.05749536     0.16100
C595        C  0.65697896  0.26036544  0.06750030     0.25500
C596        C  0.65828150  0.27213660  0.08315280    -0.40800
C597        C  0.69457505  0.30748474  0.08859941     0.32500
C598        C  0.72959258  0.33004936  0.07862805     0.14200
F599        F  0.68943343  0.27222180  0.04237629    -0.13100
F600        F  0.69564576  0.32049881  0.10358660    -0.13600
F601        F  0.62164221  0.22701895  0.06194008    -0.15900
F602        F  0.76472503  0.36356030  0.08422787    -0.14500
F603        F  0.73228148  0.42323632  0.05621265    -0.14500
F604        F  0.88417814  0.30091466  0.03254819    -0.15900
C605        C  0.23279373  0.64646491  0.07019396     0.14200
C606        C  0.28033233  0.65538621  0.06314644     0.01100
C607        C  0.28383060  0.65238686  0.04716262     0.16100
C608        C  0.24026086  0.64004431  0.03839048     0.25500
C609        C  0.19309807  0.62999513  0.04556017    -0.40800
C610        C  0.18973887  0.63335290  0.06150054     0.32600
C611        C  0.32575926  0.66710883  0.07274862     0.01200
F612        F  0.32967754  0.65962867  0.04014254    -0.13100
F613        F  0.14443887  0.62446244  0.06867042    -0.13700
C614        C  0.34087968  0.63282390  0.08425591     0.16100
C615        C  0.37883711  0.64640496  0.09480874     0.25500
C616        C  0.40261280  0.69413802  0.09390481    -0.40800
C617        C  0.38953705  0.72757420  0.08199744     0.32500
C618        C  0.35113691  0.71417487  0.07146603     0.14200
F619        F  0.31815684  0.58645725  0.08539579    -0.13100
F620        F  0.41299902  0.77357403  0.08086064    -0.13600
F621        F  0.39218734  0.61325945  0.10604104    -0.15900
F622        F  0.33718842  0.74789269  0.06045348    -0.14500
F623        F  0.22807865  0.65068003  0.08556554    -0.14500
F624        F  0.24471450  0.63539480  0.02302936    -0.15900
C625        C  0.74432703  0.66602980  0.08630052     0.14200
C626        C  0.74119025  0.68947045  0.07186194     0.01100
C627        C  0.70219759  0.72523881  0.06903534     0.16100
C628        C  0.66630796  0.73650058  0.08037653     0.25500
C629        C  0.66855785  0.71169831  0.09460273    -0.40800
C630        C  0.70804355  0.67663751  0.09750158     0.32600
C631        C  0.77771132  0.67442974  0.05978175     0.01200
F632        F  0.69769427  0.74775411  0.05514338    -0.13100
F633        F  0.71064735  0.65169779  0.11106564    -0.13700
C634        C  0.78296947  0.62278241  0.05618509     0.16100
C635        C  0.82331157  0.60658677  0.04707219     0.25500
C636        C  0.85830467  0.64149839  0.04090457    -0.40800
C637        C  0.85045602  0.69373778  0.04328451     0.32500
C638        C  0.81052810  0.71014214  0.05280651     0.14200
F639        F  0.75006951  0.58766201  0.06200960    -0.13100
F640        F  0.88350850  0.72848842  0.03738910    -0.13600
F641        F  0.82919122  0.55627426  0.04461624    -0.15900
F642        F  0.80599232  0.76041030  0.05596845    -0.14500
F643        F  0.78240532  0.63230092  0.08949771    -0.14500
F644        F  0.62852537  0.77072272  0.07739478    -0.15900
C645        C  0.23346510  0.67499692  0.93915242     0.14200
C646        C  0.27210876  0.70035613  0.94740250     0.01100
C647        C  0.26861856  0.70379042  0.96334469     0.16100
C648        C  0.22807394  0.67997024  0.97102987     0.25500
C649        C  0.19069924  0.65237384  0.96282369    -0.40800
C650        C  0.19304116  0.65123322  0.94677896     0.32600
C651        C  0.31731443  0.72072715  0.93934795     0.01200
F652        F  0.30564536  0.72839552  0.97147450    -0.13100
F653        F  0.15597723  0.62757383  0.93841378    -0.13700
C654        C  0.32527497  0.77338637  0.93815597     0.16100
C655        C  0.36660719  0.79224465  0.92971135     0.25500
C656        C  0.40036480  0.75864520  0.92245199    -0.40800
C657        C  0.39316768  0.70600761  0.92394191     0.32500
C658        C  0.35177210  0.68714600  0.93231970     0.14200
F659        F  0.29176839  0.80637771  0.94459835    -0.13100
F660        F  0.42490293  0.67311672  0.91670517    -0.13600
F661        F  0.37275720  0.84323104  0.92810960    -0.15900
F662        F  0.34460232  0.63611070  0.93335418    -0.14500
F663        F  0.23518037  0.67298933  0.92367771    -0.14500
F664        F  0.22678065  0.68174471  0.98650325    -0.15900
C665        C  0.80949775  0.72171668  0.96067475     0.14200
C666        C  0.79575174  0.70980174  0.94558005     0.01100
C667        C  0.82323673  0.67206450  0.93783975     0.16100
C668        C  0.86256591  0.64522451  0.94518390     0.25500
C669        C  0.87536153  0.65552013  0.96053753    -0.40800
C670        C  0.84886924  0.69475564  0.96811789     0.32600
C671        C  0.75036644  0.73342496  0.93812508     0.01200
F672        F  0.81162050  0.66094806  0.92308459    -0.13100
F673        F  0.85983357  0.70604171  0.98289863    -0.13700
C674        C  0.74969168  0.78535567  0.93428584     0.16100
C675        C  0.70791898  0.80577077  0.92609931     0.25500
C676        C  0.66633877  0.77446835  0.92171042    -0.40800
C677        C  0.66682097  0.72289011  0.92587160     0.32500
C678        C  0.70826868  0.70266063  0.93404310     0.14200
F679        F  0.79035154  0.81563431  0.93788737    -0.13100
F680        F  0.62791981  0.69158721  0.92145598    -0.13600
F681        F  0.70870046  0.85558902  0.92203000    -0.15900
F682        F  0.70788872  0.65251204  0.93773296    -0.14500
F683        F  0.78348251  0.75810976  0.96839216    -0.14500
F684        F  0.88812898  0.60956988  0.93707682    -0.15900
C685        C  0.23465652  0.37334090  0.93803225     0.14200
C686        C  0.27453764  0.34567601  0.94496956     0.01100
C687        C  0.27437400  0.33847963  0.96087432     0.16100
C688        C  0.23475792  0.35890708  0.96971135     0.25500
C689        C  0.19510646  0.38705698  0.96273376    -0.40800
C690        C  0.19559315  0.39416747  0.94681144     0.32600
C691        C  0.31649282  0.32548334  0.93546611     0.01200
F692        F  0.31334208  0.31302543  0.96786816    -0.13100
F693        F  0.15771877  0.42062107  0.93962081    -0.13700
C694        C  0.34486169  0.35868789  0.92615582     0.16100
C695        C  0.38173889  0.33968507  0.91622983     0.25500
C696        C  0.39241184  0.28742315  0.91588511    -0.40800
C697        C  0.36495324  0.25417401  0.92541953     0.32500
C698        C  0.32664683  0.27303476  0.93500440     0.14200
F699        F  0.33693668  0.40965307  0.92674124    -0.13100
F700        F  0.37475838  0.20350962  0.92524711    -0.13600
F701        F  0.40780717  0.37236748  0.90707035    -0.15900
F702        F  0.29855896  0.24008646  0.94352078    -0.14500
F703        F  0.23327486  0.37978749  0.92265279    -0.14500
F704        F  0.23632217  0.35289016  0.98509381    -0.15900
C705        C  0.82249685  0.31530020  0.94919762     0.14200
C706        C  0.78726665  0.34892143  0.94234614     0.01100
C707        C  0.79349423  0.40153595  0.94437924     0.16100
C708        C  0.83469886  0.42032253  0.95295363     0.25500
C709        C  0.86989788  0.38676971  0.95981604    -0.40800
C710        C  0.86336983  0.33409182  0.95797854     0.32600
C711        C  0.74436888  0.32938482  0.93290457     0.01200
F712        F  0.75926524  0.43472825  0.93818545    -0.13100
F713        F  0.89771186  0.30091493  0.96411089    -0.13700
C714        C  0.70854219  0.29502494  0.93906500     0.16100
C715        C  0.66776706  0.27699336  0.93011707     0.25500
C716        C  0.66181928  0.29379143  0.91499248    -0.40800
C717        C  0.69755003  0.32826290  0.90885523     0.32500
C718        C  0.73878041  0.34555473  0.91769463     0.14200
F719        F  0.71271732  0.27947848  0.95380014    -0.13100
F720        F  0.69259028  0.34483441  0.89423143    -0.13600
F721        F  0.63423153  0.24293626  0.93614976    -0.15900
F722        F  0.77380064  0.37743978  0.91133113    -0.14500
F723        F  0.81819215  0.26438538  0.94698707    -0.14500
F724        F  0.83959833  0.47135216  0.95481201    -0.15900
C725        C  0.71958627  0.83656656  0.18281191     0.14200
C726        C  0.74753273  0.79769163  0.19005279     0.01100
C727        C  0.73217837  0.74689974  0.18827329     0.16100
C728        C  0.68989112  0.73497616  0.17898357     0.25500
C729        C  0.66267502  0.77381004  0.17146516    -0.40800
C730        C  0.67731477  0.82470178  0.17358671     0.32600
C731        C  0.79116636  0.81109982  0.20001840     0.01200
F732        F  0.75817296  0.70911267  0.19551339    -0.13100
F733        F  0.65173567  0.86259205  0.16625247    -0.13700
C734        C  0.78127786  0.83258027  0.21428812     0.16100
C735        C  0.82140907  0.85247141  0.22300862     0.25500
C736        C  0.87219442  0.85104828  0.21759297    -0.40800
C737        C  0.88263549  0.82704998  0.20365837     0.32500
C738        C  0.84209981  0.80721829  0.19485148     0.14200
F739        F  0.73232599  0.83599689  0.21949408    -0.13100
F740        F  0.93127627  0.82610874  0.19811482    -0.13600
F741        F  0.81040487  0.87443767  0.23661167    -0.15900
F742        F  0.85208767  0.78683583  0.18096529    -0.14500
F743        F  0.73398425  0.88591812  0.18448541    -0.14500
F744        F  0.67604401  0.68562567  0.17703791    -0.15900
C745        C  0.23522542  0.84304697  0.19039543     0.14200
C746        C  0.26309025  0.80239938  0.19671109     0.01100
C747        C  0.24558300  0.77951100  0.21026375     0.16100
C748        C  0.20217790  0.79881872  0.21776484     0.25500
C749        C  0.17585124  0.84096042  0.21171210    -0.40800
C750        C  0.19209464  0.86206572  0.19781624     0.32600
C751        C  0.31089803  0.78536979  0.18914580     0.01200
F752        F  0.27247854  0.74080790  0.21672893    -0.13100
F753        F  0.16798823  0.90356763  0.19194654    -0.13700
C754        C  0.35205427  0.81955876  0.18716959     0.16100
C755        C  0.39395666  0.80643981  0.17806931     0.25500
C756        C  0.39551860  0.75890761  0.17081079    -0.40800
C757        C  0.35576554  0.72361413  0.17348121     0.32500
C758        C  0.31370722  0.73682115  0.18257204     0.14200
F759        F  0.35077804  0.86637912  0.19365499    -0.13100
F760        F  0.35664175  0.67725232  0.16671802    -0.13600
F761        F  0.43187727  0.84110543  0.17570439    -0.15900
F762        F  0.27429367  0.70337009  0.18423455    -0.14500
F763        F  0.25095225  0.86557185  0.17726625    -0.14500
F764        F  0.18874154  0.77939356  0.23153906    -0.15900
C765        C  0.73151471  0.10881489  0.16880578     0.14200
C766        C  0.76383239  0.14871108  0.17371530     0.01100
C767        C  0.75249659  0.19874924  0.16913023     0.16100
C768        C  0.70978406  0.20861798  0.15977411     0.25500
C769        C  0.67774600  0.16869088  0.15487810    -0.40800
C770        C  0.68886572  0.11876474  0.15944552     0.32600
C771        C  0.80835149  0.13791421  0.18392832     0.01200
F772        F  0.78325485  0.23792822  0.17351971    -0.13100
F773        F  0.65856985  0.07967299  0.15472154    -0.13700
C774        C  0.84573776  0.10206847  0.17968545     0.16100
C775        C  0.88398367  0.08714006  0.19006699     0.25500
C776        C  0.88597276  0.10844966  0.20471095    -0.40800
C777        C  0.85042384  0.14605717  0.20873329     0.32500
C778        C  0.81185267  0.16076573  0.19841712     0.14200
F779        F  0.84433677  0.08054252  0.16561875    -0.13100
F780        F  0.85129861  0.16632898  0.22296987    -0.13600
F781        F  0.91772815  0.05022286  0.18607992    -0.15900
F782        F  0.77606605  0.19500427  0.20292767    -0.14500
F783        F  0.74075579  0.06025741  0.17331444    -0.14500
F784        F  0.69961238  0.25714882  0.15543248    -0.15900
C785        C  0.34783378  0.10757547  0.17106664     0.14200
C786        C  0.32081451  0.14687915  0.17828378     0.01100
C787        C  0.33935037  0.19697276  0.17731104     0.16100
C788        C  0.38269234  0.20800898  0.16848268     0.25500
C789        C  0.40841897  0.16892440  0.16074911    -0.40800
C790        C  0.39155250  0.11851464  0.16242695     0.32600
C791        C  0.27344454  0.13535286  0.18687608     0.01200
F792        F  0.31420879  0.23533086  0.18441269    -0.13100
F793        F  0.41601246  0.08032984  0.15504603    -0.13700
C794        C  0.27386189  0.13803495  0.20285024     0.16100
C795        C  0.23069455  0.12300484  0.21112358     0.25500
C796        C  0.18625033  0.10550393  0.20354940    -0.40800
C797        C  0.18506011  0.10432159  0.18754602     0.32500
C798        C  0.22851466  0.11918364  0.17923355     0.14200
F799        F  0.31710093  0.15257151  0.21045329    -0.13100
F800        F  0.14307309  0.08604813  0.18004416    -0.13600
F801        F  0.23312757  0.12296315  0.22661030    -0.15900
F802        F  0.22736865  0.11648970  0.16376414    -0.14500
F803        F  0.33132052  0.05872824  0.17221860    -0.14500
F804        F  0.39831856  0.25700695  0.16692719    -0.15900
C805        C  0.13655633  0.21895815  0.68401363     0.14200
C806        C  0.17280239  0.25272123  0.69013874     0.01100
C807        C  0.19391609  0.24341987  0.70465070     0.16100
C808        C  0.17836748  0.20082554  0.71307224     0.25500
C809        C  0.14178817  0.16677541  0.70696223    -0.40800
C810        C  0.12130428  0.17633341  0.69226691     0.32600
C811        C  0.18945984  0.29655252  0.68096564     0.01200
F812        F  0.22900588  0.27603729  0.71071858    -0.13100
F813        F  0.08683864  0.14415683  0.68567457    -0.13700
C814        C  0.15450898  0.33551156  0.67737798     0.16100
C815        C  0.16850486  0.37411031  0.66725782     0.25500
C816        C  0.21743628  0.37386199  0.66058757    -0.40800
C817        C  0.25270910  0.33553968  0.66441270     0.32500
C818        C  0.23880189  0.29706581  0.67457331     0.14200
F819        F  0.10656936  0.33542515  0.68344140    -0.13100
F820        F  0.30016699  0.33499117  0.65803928    -0.13600
F821        F  0.13395794  0.41087073  0.66358810    -0.15900
F822        F  0.27257495  0.25907924  0.67767176    -0.14500
F823        F  0.11661197  0.22683849  0.66983860    -0.14500
F824        F  0.19837401  0.19375739  0.72724448    -0.15900
C825        C  0.13678385  0.78641135  0.68366328     0.14200
C826        C  0.17819067  0.75722017  0.68899611     0.01100
C827        C  0.20116553  0.76931844  0.70306506     0.16100
C828        C  0.18274761  0.81012699  0.71173690     0.25500
C829        C  0.14100994  0.83972155  0.70640210    -0.40800
C830        C  0.11829521  0.82706661  0.69222959     0.32600
C831        C  0.19640640  0.71389180  0.67976705     0.01200
F832        F  0.24085881  0.74101551  0.70852496    -0.13100
F833        F  0.07821415  0.85416341  0.68647866    -0.13700
C834        C  0.24391231  0.71627599  0.67223479     0.16100
C835        C  0.25830426  0.67750928  0.66218146     0.25500
C836        C  0.22536976  0.63585205  0.65957867    -0.40800
C837        C  0.17836807  0.63312838  0.66739040     0.32500
C838        C  0.16410643  0.67173131  0.67742543     0.14200
F839        F  0.27541810  0.75699469  0.67421865    -0.13100
F840        F  0.14572578  0.59352514  0.66500246    -0.13600
F841        F  0.30402212  0.68084450  0.65484127    -0.15900
F842        F  0.11829445  0.66843245  0.68471761    -0.14500
F843        F  0.11455344  0.77580959  0.66996469    -0.14500
F844        F  0.20558448  0.81986617  0.72537569    -0.15900
C845        C  0.91085166  0.26271692  0.70355810     0.14200
C846        C  0.85879918  0.26806966  0.69944292     0.01100
C847        C  0.82330188  0.23054548  0.70395160     0.16100
C848        C  0.84048486  0.18636900  0.71132576     0.25500
C849        C  0.89330082  0.17899905  0.71395905    -0.40800
C850        C  0.92808540  0.21821957  0.71055399     0.32600
C851        C  0.84361981  0.30846682  0.68854138     0.01200
F852        F  0.77277117  0.23475955  0.70015147    -0.13100
F853        F  0.97906345  0.21285923  0.71362463    -0.13700
C854        C  0.86864345  0.31135959  0.67437980     0.16100
C855        C  0.85453930  0.34807207  0.66368997     0.25500
C856        C  0.81449506  0.38205482  0.66679965    -0.40800
C857        C  0.78929108  0.37946965  0.68093518     0.32500
C858        C  0.80384403  0.34288956  0.69177870     0.14200
F859        F  0.90591501  0.27749736  0.67070881    -0.13100
F860        F  0.75011183  0.41175266  0.68407863    -0.13600
F861        F  0.87959985  0.35013802  0.65015505    -0.15900
F862        F  0.77930656  0.34112860  0.70539709    -0.14500
F863        F  0.94546562  0.29958101  0.70002534    -0.14500
F864        F  0.80617679  0.14907741  0.71469904    -0.15900
C865        C  0.78223632  0.69073214  0.68417417     0.14200
C866        C  0.81611004  0.72874348  0.67905600     0.01100
C867        C  0.83450976  0.72669931  0.66400741     0.16100
C868        C  0.82209692  0.68570637  0.65458339     0.25500
C869        C  0.79020135  0.64640661  0.65991356    -0.40800
C870        C  0.76915303  0.64994264  0.67462717     0.32600
C871        C  0.83693242  0.76760316  0.68967152     0.01200
F872        F  0.86594607  0.76381052  0.65860140    -0.13100
F873        F  0.73719395  0.61306464  0.67987606    -0.13700
C874        C  0.89036437  0.77059182  0.69192634     0.16100
C875        C  0.91172546  0.80930956  0.70073378     0.25500
C876        C  0.88014723  0.84586390  0.70762579    -0.40800
C877        C  0.82637782  0.84132502  0.70619430     0.32500
C878        C  0.80484658  0.80245381  0.69718836     0.14200
F879        F  0.92213768  0.73606307  0.68541195    -0.13100
F880        F  0.79495435  0.87599702  0.71277167    -0.13600
F881        F  0.96364399  0.81098138  0.70248659    -0.15900
F882        F  0.75303444  0.80025507  0.69524619    -0.14500
F883        F  0.76395111  0.69174700  0.69864179    -0.14500
F884        F  0.84291245  0.68333298  0.64042926    -0.15900
C885        C  0.69197761  0.18586759  0.56917398     0.14200
C886        C  0.71611608  0.22712268  0.56203600     0.01100
C887        C  0.72083760  0.22753652  0.54607013     0.16100
C888        C  0.69913340  0.18827966  0.53729237     0.25500
C889        C  0.67153390  0.14881715  0.54440965    -0.40800
C890        C  0.66970718  0.14714382  0.56045941     0.32600
C891        C  0.72957695  0.27244395  0.57116627     0.01200
F892        F  0.74465421  0.26696877  0.53899728    -0.13100
F893        F  0.64583151  0.10826285  0.56777079    -0.13700
C894        C  0.77435117  0.27389171  0.58021431     0.16100
C895        C  0.78411443  0.31567705  0.58973099     0.25500
C896        C  0.74869054  0.35602389  0.59050580    -0.40800
C897        C  0.70376933  0.35408968  0.58150315     0.32500
C898        C  0.69452952  0.31284945  0.57184268     0.14200
F899        F  0.80808430  0.23458990  0.57997277    -0.13100
F900        F  0.66812764  0.39159140  0.58240700    -0.13600
F901        F  0.82772952  0.31656392  0.59833787    -0.15900
F902        F  0.65032816  0.31135317  0.56351127    -0.14500
F903        F  0.68769476  0.18446675  0.58460236    -0.14500
F904        F  0.70235416  0.19052256  0.52184850    -0.15900
C905        C  0.76029658  0.70367543  0.57323557     0.14200
C906        C  0.71823268  0.70073060  0.56312837     0.01100
C907        C  0.68806913  0.65629963  0.56283788     0.16100
C908        C  0.69794327  0.61669785  0.57316798     0.25500
C909        C  0.73862437  0.62072132  0.58377445    -0.40800
C910        C  0.77062134  0.66391499  0.58338710     0.32600
C911        C  0.70153514  0.74660566  0.55461927     0.01200
F912        F  0.64694436  0.65276710  0.55326777    -0.13100
F913        F  0.81053143  0.66853687  0.59337191    -0.13700
C914        C  0.70012305  0.74791655  0.53856870     0.16100
C915        C  0.68144355  0.79112894  0.53088362     0.25500
C916        C  0.66311079  0.83296497  0.53920017    -0.40800
C917        C  0.66555231  0.83171056  0.55522693     0.32500
C918        C  0.68473662  0.78912571  0.56283570     0.14200
F919        F  0.71625401  0.70723261  0.53039923    -0.13100
F920        F  0.64912896  0.87182464  0.56359989    -0.13600
F921        F  0.67886467  0.79109615  0.51540567    -0.15900
F922        F  0.68521241  0.78866402  0.57833406    -0.14500
F923        F  0.79007927  0.74612337  0.57369444    -0.14500
F924        F  0.66604222  0.57577525  0.57340371    -0.15900
C925        C  0.41502161  0.23015986  0.55875057     0.14200
C926        C  0.36169212  0.23784730  0.55977636     0.01100
C927        C  0.32815888  0.20524636  0.55178555     0.16100
C928        C  0.34766922  0.16540630  0.54296148     0.25500
C929        C  0.40106487  0.15731417  0.54210508    -0.40800
C930        C  0.43453218  0.19020109  0.55004149     0.32600
C931        C  0.34133080  0.27974052  0.56927213     0.01200
F932        F  0.27644567  0.21111371  0.55290327    -0.13100
F933        F  0.48630926  0.18426412  0.54914046    -0.13700
C934        C  0.31248138  0.31918909  0.56261176     0.16100
C935        C  0.29466667  0.35954926  0.57153847     0.25500
C936        C  0.30615176  0.36155483  0.58725233    -0.40800
C937        C  0.33476010  0.32171786  0.59389189     0.32500
C938        C  0.35182579  0.28107759  0.58501145     0.14200
F939        F  0.30263246  0.31917488  0.54737910    -0.13100
F940        F  0.34676500  0.32250017  0.60899549    -0.13600
F941        F  0.26633403  0.39677371  0.56482813    -0.15900
F942        F  0.37851739  0.24280308  0.59179632    -0.14500
F943        F  0.44827976  0.26185290  0.56605702    -0.14500
F944        F  0.31423239  0.13359029  0.53579400    -0.15900
C945        C  0.42057173  0.75504493  0.55469843     0.14200
C946        C  0.36728131  0.74824504  0.55634036     0.01100
C947        C  0.33327264  0.78172546  0.54891411     0.16100
C948        C  0.35231039  0.82185662  0.54010933     0.25500
C949        C  0.40563071  0.82940911  0.53880995    -0.40800
C950        C  0.43960669  0.79548689  0.54607768     0.32600
C951        C  0.34737816  0.70739150  0.56627350     0.01200
F952        F  0.28166873  0.77682869  0.55073414    -0.13100
F953        F  0.49132192  0.80132130  0.54475309    -0.13700
C954        C  0.36187326  0.70573920  0.58173336     0.16100
C955        C  0.34394938  0.66689054  0.59114637     0.25500
C956        C  0.31041677  0.62954319  0.58534865    -0.40800
C957        C  0.29534420  0.63145311  0.56992244     0.32500
C958        C  0.31402457  0.66997355  0.56041447     0.14200
F959        F  0.39292234  0.74220874  0.58776659    -0.13100
F960        F  0.26252525  0.59612262  0.56411371    -0.13600
F961        F  0.35945455  0.66554569  0.60597210    -0.15900
F962        F  0.30026097  0.67037062  0.54544246    -0.14500
F963        F  0.45417276  0.72250481  0.56149164    -0.14500
F964        F  0.31862769  0.85482584  0.53357272    -0.15900
C965        C  0.20032601  0.32049157  0.31819194     0.14200
C966        C  0.23737812  0.28336602  0.31479510     0.01100
C967        C  0.28788075  0.28916204  0.32029885     0.16100
C968        C  0.30026856  0.32969855  0.32995392     0.25500
C969        C  0.26231471  0.36480304  0.33416232    -0.40800
C970        C  0.21262776  0.36075870  0.32790530     0.32600
C971        C  0.22151324  0.23600256  0.30707440     0.01200
F972        F  0.32430512  0.25398676  0.31704834    -0.13100
F973        F  0.17554302  0.39458938  0.33174736    -0.13700
C974        C  0.24344497  0.22103891  0.29315730     0.16100
C975        C  0.22474662  0.17793257  0.28555938     0.25500
C976        C  0.18395132  0.14993370  0.29179876    -0.40800
C977        C  0.16392294  0.16341409  0.30600496     0.32500
C978        C  0.18282795  0.20588704  0.31366099     0.14200
F979        F  0.28048016  0.24982744  0.28650337    -0.13100
F980        F  0.12404842  0.13689735  0.31205838    -0.13600
F981        F  0.24352324  0.16584709  0.27160804    -0.15900
F982        F  0.16214607  0.21870946  0.32730942    -0.14500
F983        F  0.15170738  0.31658763  0.31252310    -0.14500
F984        F  0.34870443  0.33367732  0.33570454    -0.15900
C985        C  0.19501195  0.67850739  0.32209683     0.14200
C986        C  0.23137243  0.71723490  0.31946680     0.01100
C987        C  0.28283909  0.70973455  0.32390028     0.16100
C988        C  0.29710446  0.66551186  0.33167082     0.25500
C989        C  0.26003350  0.62848649  0.33516962    -0.40800
C990        C  0.20928160  0.63443834  0.32994506     0.32600
C991        C  0.21502794  0.76648975  0.31292674     0.01200
F992        F  0.31855177  0.74660707  0.32155056    -0.13100
F993        F  0.17304288  0.59888699  0.33324521    -0.13700
C994        C  0.17618332  0.79475118  0.32006167     0.16100
C995        C  0.15821049  0.83960219  0.31341567     0.25500
C996        C  0.17933677  0.85731298  0.29970773    -0.40800
C997        C  0.21986481  0.83055301  0.29294058     0.32500
C998        C  0.23749278  0.78524088  0.29948738     0.14200
F999        F  0.15467538  0.77814517  0.33325108    -0.13100
F1000       F  0.23915893  0.84579034  0.27931658    -0.13600
F1001       F  0.11823145  0.86447418  0.31992284    -0.15900
F1002       F  0.27413920  0.75799695  0.29219182    -0.14500
F1003       F  0.14536910  0.68411514  0.31747946    -0.14500
F1004       F  0.34641015  0.66003715  0.33658861    -0.15900
C1005       C  0.30312296  0.31433292  0.43459010     0.14200
C1006       C  0.34970880  0.28777603  0.43334383     0.01100
C1007       C  0.38275891  0.29838507  0.42111499     0.16100
C1008       C  0.36952145  0.33523068  0.41030089     0.25500
C1009       C  0.32333321  0.36231772  0.41164864    -0.40800
C1010       C  0.29008224  0.35160741  0.42382303     0.32600
C1011       C  0.36400879  0.24838771  0.44460324     0.01200
F1012       F  0.42765839  0.27264356  0.41960132    -0.13100
F1013       F  0.24526249  0.37746162  0.42527638    -0.13700
C1014       C  0.33675554  0.20222670  0.44516155     0.16100
C1015       C  0.35428739  0.16244854  0.45444519     0.25500
C1016       C  0.39938268  0.16842034  0.46313240    -0.40800
C1017       C  0.42536952  0.21522489  0.46308174     0.32500
C1018       C  0.40761919  0.25512512  0.45393651     0.14200
F1019       F  0.29525056  0.19461083  0.43595855    -0.13100
F1020       F  0.46891641  0.22160305  0.47151692    -0.13600
F1021       F  0.32960000  0.11693156  0.45406649    -0.15900
F1022       F  0.43391334  0.29978404  0.45377015    -0.14500
F1023       F  0.27087191  0.30472012  0.44637461    -0.14500
F1024       F  0.40198577  0.34499875  0.39857514    -0.15900
C1025       C  0.36952567  0.75481810  0.45515731     0.14200
C1026       C  0.36223740  0.75963812  0.43929100     0.01100
C1027       C  0.37038782  0.80726360  0.43239194     0.16100
C1028       C  0.38800092  0.84855582  0.44104799     0.25500
C1029       C  0.39715177  0.84327845  0.45680498    -0.40800
C1030       C  0.38656953  0.79643201  0.46386907     0.32600
C1031       C  0.34935855  0.71448388  0.42978968     0.01200
F1032       F  0.36192926  0.81356855  0.41719729    -0.13100
F1033       F  0.39588253  0.79004589  0.47900825    -0.13700
C1034       C  0.30355840  0.68690671  0.43209931     0.16100
C1035       C  0.29187445  0.64448769  0.42300800     0.25500
C1036       C  0.32581098  0.62912833  0.41150151    -0.40800
C1037       C  0.37165895  0.65634478  0.40927356     0.32500
C1038       C  0.38336340  0.69861429  0.41831988     0.14200
F1039       F  0.26945087  0.70207372  0.44282035    -0.13100
F1040       F  0.40477582  0.64218670  0.39814864    -0.13600
F1041       F  0.24683396  0.61928897  0.42509635    -0.15900
F1042       F  0.42812551  0.72400683  0.41592155    -0.14500
F1043       F  0.36279980  0.70907096  0.46206386    -0.14500
F1044       F  0.39645032  0.89380212  0.43400576    -0.15900
C1045       C  0.87623160  0.19908799  0.31757675     0.14200
C1046       C  0.87846209  0.24915114  0.31193695     0.01100
C1047       C  0.90082576  0.25838277  0.29769793     0.16100
C1048       C  0.92140665  0.21850176  0.28926054     0.25500
C1049       C  0.91970761  0.16828622  0.29485092    -0.40800
C1050       C  0.89673262  0.15881568  0.30906906     0.32600
C1051       C  0.85936383  0.29247523  0.32099136     0.01200
F1052       F  0.90256310  0.30630424  0.29193478    -0.13100
F1053       F  0.89615659  0.11110841  0.31500071    -0.13700
C1054       C  0.89418699  0.32911977  0.32653257     0.16100
C1055       C  0.87651601  0.37085054  0.33481527     0.25500
C1056       C  0.82382362  0.37648949  0.33768321    -0.40800
C1057       C  0.78881599  0.34037939  0.33195274     0.32500
C1058       C  0.80648915  0.29858180  0.32363168     0.14200
F1059       F  0.94548225  0.32363079  0.32425288    -0.13100
F1060       F  0.73772328  0.34522455  0.33469935    -0.13600
F1061       F  0.91091357  0.40472671  0.34060339    -0.15900
F1062       F  0.77213502  0.26418159  0.31810701    -0.14500
F1063       F  0.85573405  0.18955876  0.33150560    -0.14500
F1064       F  0.94247266  0.22912798  0.27548005    -0.15900
C1065       C  0.87843058  0.69088658  0.32672852     0.14200
C1066       C  0.84411302  0.73181164  0.32487378     0.01100
C1067       C  0.79292567  0.72627717  0.32965340     0.16100
C1068       C  0.77700070  0.68145983  0.33683379     0.25500
C1069       C  0.81204096  0.64161996  0.33936558    -0.40800
C1070       C  0.86255966  0.64621732  0.33398163     0.32600
C1071       C  0.86256273  0.78067664  0.31847666     0.01200
F1072       F  0.75914016  0.76524994  0.32809983    -0.13100
F1073       F  0.89721027  0.60852826  0.33649831    -0.13700
C1074       C  0.84019510  0.80114851  0.30516794     0.16100
C1075       C  0.86162657  0.84423670  0.29825789     0.25500
C1076       C  0.90592701  0.86698071  0.30449921    -0.40800
C1077       C  0.92649478  0.84825494  0.31824159     0.32500
C1078       C  0.90465437  0.80577023  0.32527565     0.14200
F1079       F  0.79992905  0.77734693  0.29827459    -0.13100
F1080       F  0.96946583  0.86957913  0.32440902    -0.13600
F1081       F  0.84193419  0.86091346  0.28476923    -0.15900
F1082       F  0.92573808  0.78795559  0.33845545    -0.14500
F1083       F  0.92772504  0.69469061  0.32181187    -0.14500
F1084       F  0.72806039  0.67781567  0.34204882    -0.15900
C1085       C  0.72478007  0.22127409  0.45147841     0.14200
C1086       C  0.68959729  0.25083839  0.44302500     0.01100
C1087       C  0.63664551  0.24157904  0.44461303     0.16100
C1088       C  0.61925941  0.20160792  0.45368359     0.25500
C1089       C  0.65436839  0.17076018  0.46170390    -0.40800
C1090       C  0.70723389  0.18181600  0.46088897     0.32600
C1091       C  0.70742490  0.28995790  0.43205421     0.01200
F1092       F  0.60158604  0.27104360  0.43721320    -0.13100
F1093       F  0.74213387  0.15269585  0.46844054    -0.13700
C1094       C  0.68938632  0.28899083  0.41686741     0.16100
C1095       C  0.70238728  0.32780403  0.40674185     0.25500
C1096       C  0.73466589  0.36759311  0.41147608    -0.40800
C1097       C  0.75448267  0.36775472  0.42643259     0.32500
C1098       C  0.74063438  0.32939316  0.43670705     0.14200
F1099       F  0.65884517  0.25047654  0.41184420    -0.13100
F1100       F  0.78656293  0.40552351  0.43110763    -0.13600
F1101       F  0.68258308  0.32723294  0.39236306    -0.15900
F1102       F  0.75819982  0.33175547  0.45131055    -0.14500
F1103       F  0.77619254  0.22891349  0.45005238    -0.14500
F1104       F  0.56783988  0.19291921  0.45453511    -0.15900
C1105       C  0.62512493  0.75943153  0.44654853     0.14200
C1106       C  0.67713257  0.74821619  0.44401315     0.01100
C1107       C  0.71549567  0.77926311  0.45051898     0.16100
C1108       C  0.70187069  0.82236680  0.45886070     0.25500
C1109       C  0.64981936  0.83517530  0.46054814    -0.40800
C1110       C  0.61154155  0.80290476  0.45459868     0.32600
C1111       C  0.69092049  0.70710314  0.43340431     0.01200
F1112       F  0.76602093  0.76956525  0.44802062    -0.13100
F1113       F  0.56089581  0.81371144  0.45645085    -0.13700
C1114       C  0.67226517  0.70847897  0.41831828     0.16100
C1115       C  0.68543522  0.67037346  0.40805573     0.25500
C1116       C  0.71820318  0.63076229  0.41263165    -0.40800
C1117       C  0.73706285  0.62938750  0.42770514     0.32500
C1118       C  0.72321558  0.66719056  0.43806729     0.14200
F1119       F  0.64219075  0.74748424  0.41343264    -0.13100
F1120       F  0.76935531  0.59177518  0.43229465    -0.13600
F1121       F  0.66658871  0.67230530  0.39357709    -0.15900
F1122       F  0.74103316  0.66474336  0.45264786    -0.14500
F1123       F  0.58746720  0.72886084  0.44086421    -0.14500
F1124       F  0.73947645  0.85334415  0.46435581    -0.15900
loop_ 
_geom_bond_atom_site_label_1 
_geom_bond_atom_site_label_2 
_geom_bond_distance 
_geom_bond_site_symmetry_2 
_ccdc_geom_bond_type 
N1            C6   1.351       .  A
N1            C5   1.352       .  A
N1           H33   1.040       .  S
N2            C9   1.347       .  A
N2           C10   1.347       .  A
N3            C8   1.351       .  A
N3            C7   1.352       .  A
N3           H34   1.041       .  S
N4           C11   1.350       .  A
N4           C12   1.350       .  A
C5           C13   1.385       .  A
C5           C21   1.411       .  A
C6           C22   1.412       .  A
C6           C14   1.388       .  A
C7           C15   1.386       .  A
C7           C24   1.410       .  A
C8           C23   1.413       .  A
C8           C16   1.388       .  A
C9           C21   1.407       .  A
C9           C17   1.386       .  A
C10          C24   1.406       .  A
C10          C18   1.386       .  A
C11          C19   1.386       .  A
C11          C22   1.412       .  A
C12          C20   1.386       .  A
C12          C23   1.412       .  A
C13          C14   1.374       .  A
C13          H25   1.082       .  S
C14          H26   1.082       .  S
C15          C16   1.374       .  A
C15          H27   1.082       .  S
C16          H28   1.082       .  S
C17          C18   1.373       .  A
C17          H29   1.082       .  S
C18          H30   1.082       .  S
C19          C20   1.378       .  A
C19          H31   1.082       .  S
C20          H32   1.082       .  S
C21        C1096   1.482       .  S
C22        C1056   1.482       .  S
C23        C1069   1.485       .  S
C24        C1116   1.482       .  S
N35          C40   1.353       .  A
N35          C39   1.354       .  A
N35          H67   1.037       .  S
N36          C43   1.349       .  A
N36          C44   1.349       .  A
N37          C42   1.353       .  A
N37          C41   1.352       .  A
N37          H68   1.038       .  S
N38          C45   1.352       .  A
N38          C46   1.354       .  A
C39          C47   1.389       .  A
C39          C55   1.419       .  A
C40          C56   1.417       .  A
C40          C48   1.387       .  A
C41          C49   1.389       .  A
C41          C58   1.416       .  A
C42          C57   1.412       .  A
C42          C50   1.386       .  A
C43          C55   1.411       .  A
C43          C51   1.387       .  A
C44          C58   1.409       .  A
C44          C52   1.386       .  A
C45          C53   1.388       .  A
C45          C56   1.416       .  A
C46          C54   1.384       .  A
C46          C57   1.413       .  A
C47          C48   1.375       .  A
C47          H59   1.082       .  S
C48          H60   1.082       .  S
C49          C50   1.371       .  A
C49          H61   1.082       .  S
C50          H62   1.082       .  S
C51          C52   1.373       .  A
C51          H63   1.082       .  S
C52          H64   1.082       .  S
C53          C54   1.373       .  A
C53          H65   1.082       .  S
C54          H66   1.082       .  S
C55         C969   1.483       .  S
C56        C1009   1.484       .  S
C57        C1036   1.488       .  S
C58         C989   1.480       .  S
C69          N87   1.355       .  A
C69         C106   1.455       .  S
C69        C1029   1.481       .  S
N70          N87   1.331       .  A
N70          N92   1.320       .  A
N70        Co107   2.104       .  S
C71          N96   1.345       .  A
C71         H116   1.081       .  S
C71         C109   1.465       .  S
H72         C113   1.081       .  S
C73          N97   1.335       .  A
C73         H102   1.081       .  S
C73          C77   1.453       .  S
Co74         N92   2.083   1_545  S
Co74         N82   2.072   1_545  S
Co74        N114   2.072       .  S
Co74         N90   2.076       .  S
Co74       Cl118   2.430   1_545  S
N75         C113   1.341       .  A
N75          N82   1.320       .  A
N75         Co76   2.080   1_565  S
Co76         N79   2.100   1_545  S
Co76         N96   2.090       .  S
Co76         N83   2.093       .  S
Co76       Cl118   2.473   1_545  S
C77         N115   1.355       .  A
C77         C916   1.478       .  S
N78          N85   1.320       .  A
N78         N108   1.321       .  A
N78        Co111   2.079       .  S
N79          N97   1.320       .  A
N79         N115   1.330       .  A
N80         C109   1.346       .  A
N80          N90   1.320       .  A
H81         C106   1.081       .  S
N82         N103   1.320       .  A
N83         N101   1.320       .  A
N83          N88   1.328       .  A
C84          N88   1.353       .  A
C84         C112   1.459       .  S
C84         C889   1.481       .  S
N85         C100   1.342       .  A
N85        Co107   2.080       .  S
C86         N114   1.336       .  A
C86         H120   1.081       .  S
C86          C89   1.450       .  S
C89         N110   1.351       .  A
C89        C1016   1.464       .  S
N90          N96   1.320       .  A
N91         C117   1.343       .  A
N91          N93   1.320       .  A
N91        Co107   2.093   1_545  S
N92         C106   1.339       .  A
N93         N121   1.323       .  A
N93        Co111   2.081   1_545  S
H94         C117   1.081       .  S
H95         C112   1.081       .  S
N97        Co111   2.074       .  S
N98         N110   1.327       .  A
N98         N114   1.320       .  A
N98        Co107   2.090   1_545  S
C99         N103   1.346       .  A
C99         C113   1.458       .  S
C99        C1109   1.466       .  S
C100        H104   1.081       .  S
C100        C119   1.461       .  S
N101        C112   1.337       .  A
N101       Co111   2.081   1_545  S
C105        N121   1.349       .  A
C105        C117   1.463       .  S
C105        C929   1.479       .  S
Co107      Cl118   2.472       .  S
N108        C119   1.346       .  A
C109       C1089   1.476       .  S
Co111      Cl118   2.430       .  S
C119        C949   1.471       .  S
N122        C127   1.352       .  A
N122        C126   1.353       .  A
N122        H154   1.041       .  S
N123        C130   1.350       .  A
N123        C131   1.349       .  A
N124        C129   1.354       .  A
N124        C128   1.352       .  A
N124        H155   1.040       .  S
N125        C132   1.351       .  A
N125        C133   1.350       .  A
C126        C134   1.386       .  A
C126        C142   1.412       .  A
C127        C143   1.415       .  A
C127        C135   1.388       .  A
C128        C136   1.387       .  A
C128        C145   1.414       .  A
C129        C144   1.416       .  A
C129        C137   1.387       .  A
C130        C142   1.412       .  A
C130        C138   1.387       .  A
C131        C145   1.410       .  A
C131        C139   1.386       .  A
C132        C140   1.386       .  A
C132        C143   1.413       .  A
C133        C141   1.386       .  A
C133        C144   1.413       .  A
C134        C135   1.376       .  A
C134        H146   1.082       .  S
C135        H147   1.082       .  S
C136        C137   1.376       .  A
C136        H148   1.082       .  S
C137        H149   1.082       .  S
C138        C139   1.375       .  A
C138        H150   1.082       .  S
C139        H151   1.082       .  S
C140        C141   1.376       .  A
C140        H152   1.082       .  S
C141        H153   1.082       .  S
C142        C869   1.489       .  S
C143        C909   1.492       .  S
C144        C896   1.492       .  S
C145        C856   1.484       .  S
N156        C161   1.352       .  A
N156        C160   1.350       .  A
N156        H188   1.041       .  S
N157        C164   1.346       .  A
N157        C165   1.349       .  A
N158        C163   1.350       .  A
N158        C162   1.354       .  A
N158        H189   1.041       .  S
N159        C166   1.353       .  A
N159        C167   1.350       .  A
C160        C168   1.388       .  A
C160        C176   1.412       .  A
C161        C177   1.412       .  A
C161        C169   1.386       .  A
C162        C170   1.386       .  A
C162        C179   1.414       .  A
C163        C178   1.413       .  A
C163        C171   1.388       .  A
C164        C176   1.407       .  A
C164        C172   1.386       .  A
C165        C179   1.409       .  A
C165        C173   1.386       .  A
C166        C174   1.386       .  A
C166        C177   1.414       .  A
C167        C175   1.387       .  A
C167        C178   1.413       .  A
C168        C169   1.377       .  A
C168        H180   1.082       .  S
C169        H181   1.082       .  S
C170        C171   1.377       .  A
C170        H182   1.082       .  S
C171        H183   1.082       .  S
C172        C173   1.374       .  A
C172        H184   1.082       .  S
C173        H185   1.082       .  S
C174        C175   1.375       .  A
C174        H186   1.082       .  S
C175        H187   1.082       .  S
C176        C816   1.476       .  S
C177        C936   1.495       .  S
C178        C956   1.484       .  S
C179        C836   1.490       .  S
C190        N208   1.346       .  A
C190        C227   1.468       .  S
C190       C1049   1.480       .  S
N191        N208   1.320       .  A
N191        N213   1.319       .  A
N191       Co228   2.080   1_655  S
C192        N217   1.346       .  A
C192        H237   1.081       .  S
C192        C230   1.465       .  S
H193        C234   1.082   1_455  S
C194        N218   1.345       .  A
C194        H223   1.081       .  S
C194        C198   1.469       .  S
Co195       N213   2.095   1_565  S
Co195       N203   2.088       .  S
Co195       N235   2.081   1_565  S
Co195       N211   2.069       .  S
Co195      Cl239   2.448   1_655  S
N196        C234   1.334       .  A
N196        N203   1.318       .  A
N196       Co197   2.077   1_655  S
Co197       N200   2.061       .  S
Co197       N217   2.089   1_455  S
Co197       N204   2.106       .  S
Co197      Cl239   2.447       .  S
C198        N236   1.343       .  A
C198        C996   1.463       .  S
N199        N206   1.320       .  A
N199        N229   1.327       .  A
N199       Co232   2.078   1_545  S
N200        N218   1.317       .  A
N200        N236   1.317       .  A
N201        C230   1.343       .  A
N201        N211   1.317       .  A
H202        C227   1.081       .  S
N203        N224   1.328       .  A
N204        N222   1.318       .  A
N204        N209   1.332       .  A
C205        N209   1.359       .  A
C205        C233   1.443       .  S
C205        C749   1.471       .  S
N206        C221   1.332       .  A
N206       Co228   2.068       .  S
C207        N235   1.337       .  A
C207        H241   1.081       .  S
C207        C210   1.451       .  S
C210        N231   1.352       .  A
C210        C776   1.468       .  S
N211        N217   1.320       .  A
N212        C238   1.347       .  A
N212        N214   1.317       .  A
N212       Co228   2.096       .  S
N213        C227   1.347       .  A
N214        N242   1.318       .  A
N214       Co232   2.067   1_545  S
H215        C238   1.081       .  S
H216        C233   1.082       .  S
N218       Co232   2.091       .  S
N219        N231   1.328       .  A
N219        N235   1.320       .  A
N219       Co228   2.088   1_655  S
C220        N224   1.356       .  A
C220        C234   1.453       .  S
C220       C1076   1.469       .  S
C221        H225   1.081       .  S
C221        C240   1.447       .  S
N222        C233   1.328       .  A
N222       Co232   2.053       .  S
C226        N242   1.344       .  A
C226        C238   1.471       .  S
C226        C796   1.469       .  S
Co228      Cl239   2.449   1_545  S
N229        C240   1.350       .  A
C230        C736   1.468       .  S
Co232      Cl239   2.442       .  S
C240        C976   1.457       .  S
C243        N261   1.353       .  A
C243        C280   1.465       .  S
C243        C669   1.488       .  S
N244        N261   1.325       .  A
N244        N266   1.319       .  A
N244       Co281   2.090   1_656  S
C245        N270   1.344       .  A
C245        H290   1.081       .  S
C245        C283   1.465       .  S
H246        C287   1.081       .  S
C247        N271   1.340       .  A
C247        H276   1.081       .  S
C247        C251   1.460       .  S
Co248       N266   2.084   1_455  S
Co248       N256   2.074   1_455  S
Co248       N288   2.072       .  S
Co248       N264   2.076       .  S
Co248      Cl292   2.429   1_556  S
N249        C287   1.341       .  A
N249        N256   1.319       .  A
N249       Co250   2.079   1_656  S
Co250       N253   2.091   1_455  S
Co250       N270   2.089   1_554  S
Co250       N257   2.088       .  S
Co250      Cl292   2.472       .  S
C251        N289   1.351       .  A
C251        C589   1.480       .  S
N252        N259   1.319       .  A
N252        N282   1.320       .  A
N252       Co285   2.077   1_655  S
N253        N271   1.321       .  A
N253        N289   1.328       .  A
N254        C283   1.346       .  A
N254        N264   1.319       .  A
H255        C280   1.080       .  S
N256        N277   1.322       .  A
N257        N275   1.319       .  A
N257        N262   1.328       .  A
C258        N262   1.352       .  A
C258        C286   1.455       .  S
C258        C576   1.477       .  S
N259        C274   1.346       .  A
N259       Co281   2.087   1_655  S
C260        N288   1.336       .  A
C260        H294   1.081       .  S
C260        C263   1.456       .  S
C263        N284   1.352       .  A
C263        C649   1.476       .  S
N264        N270   1.320       .  A
N265        C291   1.344       .  A
N265        N267   1.321       .  A
N265       Co281   2.089       .  S
N266        C280   1.339       .  A
N267        N295   1.321       .  A
N267       Co285   2.078       .  S
H268        C291   1.081       .  S
H269        C286   1.081       .  S
N271       Co285   2.090   1_655  S
N272        N284   1.327       .  A
N272        N288   1.318       .  A
N272       Co281   2.087   1_556  S
C273        N277   1.347       .  A
C273        C287   1.458       .  S
C273        C709   1.469       .  S
C274        H278   1.081       .  S
C274        C293   1.462       .  S
N275        C286   1.338       .  A
N275       Co285   2.082       .  S
C279        N295   1.346       .  A
C279        C291   1.461       .  S
C279        C609   1.470       .  S
Co281      Cl292   2.467       .  S
N282        C293   1.348       .  A
C283        C689   1.475       .  S
Co285      Cl292   2.431       .  S
C293        C636   1.476       .  S
N296        C301   1.355       .  A
N296        C300   1.352       .  A
N296        H328   1.040       .  S
N297        C304   1.348       .  A
N297        C305   1.351       .  A
N298        C303   1.351       .  A
N298        C302   1.356       .  A
N298        H329   1.039       .  S
N299        C306   1.353       .  A
N299        C307   1.351       .  A
C300        C308   1.388       .  A
C300        C316   1.414       .  A
C301        C317   1.415       .  A
C301        C309   1.387       .  A
C302        C310   1.386       .  A
C302        C319   1.414       .  A
C303        C318   1.415       .  A
C303        C311   1.389       .  A
C304        C316   1.409       .  A
C304        C312   1.387       .  A
C305        C319   1.411       .  A
C305        C313   1.385       .  A
C306        C314   1.386       .  A
C306        C317   1.414       .  A
C307        C315   1.386       .  A
C307        C318   1.413       .  A
C308        C309   1.372       .  A
C308        H320   1.082       .  S
C309        H321   1.082       .  S
C310        C311   1.372       .  A
C310        H322   1.082       .  S
C311        H323   1.082       .  S
C312        C313   1.374       .  A
C312        H324   1.082       .  S
C313        H325   1.082       .  S
C314        C315   1.374       .  A
C314        H326   1.082       .  S
C315        H327   1.082       .  S
C316        C556   1.476       .  S
C317        C676   1.493       .  S
C318        C656   1.479       .  S
C319        C529   1.492       .  S
N330        C335   1.353       .  A
N330        C334   1.352       .  A
N330        H362   1.037       .  S
N331        C338   1.350       .  A
N331        C339   1.351       .  A
N332        C337   1.350       .  A
N332        C336   1.351       .  A
N332        H363   1.039       .  S
N333        C340   1.350       .  A
N333        C341   1.351       .  A
C334        C342   1.387       .  A
C334        C350   1.415       .  A
C335        C351   1.416       .  A
C335        C343   1.388       .  A
C336        C344   1.387       .  A
C336        C353   1.410       .  A
C337        C352   1.408       .  A
C337        C345   1.386       .  A
C338        C350   1.412       .  A
C338        C346   1.387       .  A
C339        C353   1.411       .  A
C339        C347   1.385       .  A
C340        C348   1.388       .  A
C340        C351   1.414       .  A
C341        C349   1.385       .  A
C341        C352   1.409       .  A
C342        C343   1.373       .  A
C342        H354   1.082       .  S
C343        H355   1.081       .  S
C344        C345   1.372       .  A
C344        H356   1.082       .  S
C345        H357   1.082       .  S
C346        C347   1.376       .  A
C346        H358   1.082       .  S
C347        H359   1.082       .  S
C348        C349   1.370       .  A
C348        H360   1.082       .  S
C349        H361   1.082       .  S
C350        C489   1.482       .  S
C351        C696   1.483       .  S
C352        C716   1.483       .  S
C353        C509   1.483       .  S
C364        N382   1.354       .  A
C364        C401   1.453       .  S
C364        C876   1.477       .  S
N365        N382   1.330       .  A
N365        N387   1.317       .  A
N365       Co402   2.094   1_565  S
C366        N391   1.346       .  A
C366        H411   1.081       .  S
C366        C404   1.470       .  S
H367        C408   1.080       .  S
C368        N392   1.345       .  A
C368        H397   1.081       .  S
C368        C372   1.472       .  S
Co369       N387   2.062   1_445  S
Co369       N377   2.083   1_545  S
Co369       N409   2.082   1_455  S
Co369       N385   2.056       .  S
Co369      Cl413   2.442       .  S
N370        C408   1.343       .  A
N370        N377   1.318       .  A
N370       Co371   2.087   1_565  S
Co371       N374   2.084   1_545  S
Co371       N391   2.091       .  S
Co371       N378   2.080       .  S
Co371      Cl413   2.444       .  S
C372        N410   1.350       .  A
C372        C536   1.493       .  S
N373        N380   1.319       .  A
N373        N403   1.324       .  A
N373       Co406   2.096   1_655  S
N374        N392   1.320       .  A
N374        N410   1.322       .  A
N375        C404   1.344       .  A
N375        N385   1.317       .  A
H376        C401   1.081       .  S
N377        N398   1.322       .  A
N378        N396   1.319       .  A
N378        N383   1.320       .  A
C379        N383   1.350       .  A
C379        C407   1.469       .  S
C379        C496   1.486       .  S
N380        C395   1.331       .  A
N380       Co402   2.064   1_565  S
C381        N409   1.338       .  A
C381        H415   1.081       .  S
C381        C384   1.456       .  S
C384        N405   1.349       .  A
C384        C849   1.470       .  S
N385        N391   1.316       .  A
N386        C412   1.339       .  A
N386        N388   1.319       .  A
N386       Co402   2.084       .  S
N387        C401   1.333       .  A
N388        N416   1.324       .  A
N388       Co406   2.085   1_645  S
H389        C412   1.082       .  S
H390        C407   1.081       .  S
N392       Co406   2.097       .  S
N393        N405   1.326       .  A
N393        N409   1.319       .  A
N393       Co402   2.077       .  S
C394        N398   1.351       .  A
C394        C408   1.468       .  S
C394        C829   1.490       .  S
C395        H399   1.080       .  S
C395        C414   1.461       .  S
N396        C407   1.343       .  A
N396       Co406   2.091   1_545  S
C400        N416   1.352       .  A
C400        C412   1.462       .  S
C400        C516   1.478       .  S
Co402      Cl413   2.446   1_655  S
N403        C414   1.357       .  A
C404        C809   1.481       .  S
Co406      Cl413   2.455   1_565  S
C414        C549   1.483       .  S
N417        C422   1.353       .  A
N417        C421   1.354       .  A
N417        H449   1.039       .  S
N418        C425   1.351       .  A
N418        C426   1.351       .  A
N419        C424   1.353       .  A
N419        C423   1.353       .  A
N419        H450   1.041       .  S
N420        C427   1.351       .  A
N420        C428   1.351       .  A
C421        C429   1.386       .  A
C421        C437   1.415       .  A
C422        C438   1.417       .  A
C422        C430   1.388       .  A
C423        C431   1.386       .  A
C423        C440   1.413       .  A
C424        C439   1.414       .  A
C424        C432   1.387       .  A
C425        C437   1.413       .  A
C425        C433   1.388       .  A
C426        C440   1.411       .  A
C426        C434   1.385       .  A
C427        C435   1.387       .  A
C427        C438   1.413       .  A
C428        C436   1.386       .  A
C428        C439   1.413       .  A
C429        C430   1.380       .  A
C429        H441   1.082       .  S
C430        H442   1.082       .  S
C431        C432   1.374       .  A
C431        H443   1.082       .  S
C432        H444   1.082       .  S
C433        C434   1.371       .  A
C433        H445   1.082       .  S
C434        H446   1.082       .  S
C435        C436   1.374       .  A
C435        H447   1.082       .  S
C436        H448   1.082       .  S
C437        C789   1.485       .  S
C438        C769   1.486       .  S
C439        C596   1.489       .  S
C440        C569   1.488       .  S
N451        C456   1.350       .  A
N451        C455   1.352       .  A
N451        H483   1.040       .  S
N452        C459   1.352       .  A
N452        C460   1.349       .  A
N453        C458   1.354       .  A
N453        C457   1.352       .  A
N453        H484   1.038       .  S
N454        C461   1.351       .  A
N454        C462   1.352       .  A
C455        C463   1.387       .  A
C455        C471   1.412       .  A
C456        C472   1.409       .  A
C456        C464   1.386       .  A
C457        C465   1.387       .  A
C457        C474   1.415       .  A
C458        C473   1.417       .  A
C458        C466   1.387       .  A
C459        C471   1.410       .  A
C459        C467   1.385       .  A
C460        C474   1.413       .  A
C460        C468   1.389       .  A
C461        C469   1.385       .  A
C461        C472   1.411       .  A
C462        C470   1.388       .  A
C462        C473   1.416       .  A
C463        C464   1.373       .  A
C463        H475   1.082       .  S
C464        H476   1.082       .  S
C465        C466   1.378       .  A
C465        H477   1.082       .  S
C466        H478   1.082       .  S
C467        C468   1.371       .  A
C467        H479   1.082       .  S
C468        H480   1.082       .  S
C469        C470   1.373       .  A
C469        H481   1.082       .  S
C470        H482   1.082       .  S
C471        C629   1.487       .  S
C472        C616   1.479       .  S
C473        C756   1.492       .  S
C474        C729   1.480       .  S
C485        C486   1.406       .  A
C485        C490   1.399       .  A
C485        F503   1.358       .  S
C486        C487   1.408       .  A
C486        C491   1.480       .  S
C487        C488   1.397       .  A
C487        F492   1.358       .  S
C488        C489   1.402       .  A
C488        F504   1.358       .  S
C489        C490   1.405       .  A
C490        F493   1.358       .  S
C491        C494   1.401       .  A
C491        C498   1.406       .  A
C494        C495   1.393       .  A
C494        F499   1.358       .  S
C495        C496   1.412       .  A
C495        F501   1.357       .  S
C496        C497   1.410       .  A
C497        C498   1.403       .  A
C497        F500   1.357       .  S
C498        F502   1.358       .  S
C505        C506   1.403       .  A
C505        C510   1.398       .  A
C505        F523   1.358       .  S
C506        C507   1.405       .  A
C506        C511   1.475       .  S
C507        C508   1.398       .  A
C507        F512   1.358       .  S
C508        C509   1.403       .  A
C508        F524   1.358       .  S
C509        C510   1.407       .  A
C510        F513   1.358       .  S
C511        C514   1.404       .  A
C511        C518   1.402       .  A
C514        C515   1.399       .  A
C514        F519   1.358       .  S
C515        C516   1.409       .  A
C515        F521   1.358       .  S
C516        C517   1.407       .  A
C517        C518   1.398       .  A
C517        F520   1.358       .  S
C518        F522   1.358       .  S
C525        C526   1.407       .  A
C525        C530   1.401       .  A
C525        F543   1.358       .  S
C526        C527   1.407       .  A
C526        C531   1.486       .  S
C527        C528   1.401       .  A
C527        F532   1.358       .  S
C528        C529   1.405       .  A
C528        F544   1.358       .  S
C529        C530   1.406       .  A
C530        F533   1.358       .  S
C531        C534   1.406       .  A
C531        C538   1.403       .  A
C534        C535   1.403       .  A
C534        F539   1.358       .  S
C535        C536   1.410       .  A
C535        F541   1.357       .  S
C536        C537   1.414       .  A
C537        C538   1.399       .  A
C537        F540   1.358       .  S
C538        F542   1.358       .  S
C545        C546   1.406       .  A
C545        C550   1.397       .  A
C545        F563   1.358       .  S
C546        C547   1.404       .  A
C546        C551   1.479       .  S
C547        C548   1.395       .  A
C547        F552   1.358       .  S
C548        C549   1.411       .  A
C548        F564   1.357       .  S
C549        C550   1.409       .  A
C550        F553   1.357       .  S
C551        C554   1.409       .  A
C551        C558   1.407       .  A
C554        C555   1.396       .  A
C554        F559   1.358       .  S
C555        C556   1.400       .  A
C555        F561   1.358       .  S
C556        C557   1.402       .  A
C557        C558   1.395       .  A
C557        F560   1.358       .  S
C558        F562   1.358       .  S
C565        C566   1.407       .  A
C565        C570   1.397       .  A
C565        F583   1.358       .  S
C566        C567   1.406       .  A
C566        C571   1.483       .  S
C567        C568   1.400       .  A
C567        F572   1.358       .  S
C568        C569   1.405       .  A
C568        F584   1.358       .  S
C569        C570   1.405       .  A
C570        F573   1.358       .  S
C571        C574   1.405       .  A
C571        C578   1.407       .  A
C574        C575   1.398       .  A
C574        F579   1.358       .  S
C575        C576   1.407       .  A
C575        F581   1.358       .  S
C576        C577   1.406       .  A
C577        C578   1.402       .  A
C577        F580   1.357       .  S
C578        F582   1.358       .  S
C585        C586   1.402       .  A
C585        C590   1.396       .  A
C585        F603   1.358       .  S
C586        C587   1.406       .  A
C586        C591   1.479       .  S
C587        C588   1.403       .  A
C587        F592   1.357       .  S
C588        C589   1.406       .  A
C588        F604   1.357       .  S
C589        C590   1.405       .  A
C590        F593   1.351       .  S
C591        C594   1.405       .  A
C591        C598   1.406       .  A
C594        C595   1.401       .  A
C594        F599   1.358       .  S
C595        C596   1.407       .  A
C595        F601   1.358       .  S
C596        C597   1.405       .  A
C597        C598   1.397       .  A
C597        F600   1.358       .  S
C598        F602   1.358       .  S
C605        C606   1.404       .  A
C605        C610   1.393       .  A
C605        F623   1.358       .  S
C606        C607   1.407       .  A
C606        C611   1.478       .  S
C607        C608   1.403       .  A
C607        F612   1.358       .  S
C608        C609   1.406       .  A
C608        F624   1.358       .  S
C609        C610   1.403       .  A
C610        F613   1.358       .  S
C611        C614   1.406       .  A
C611        C618   1.406       .  A
C614        C615   1.394       .  A
C614        F619   1.358       .  S
C615        C616   1.401       .  A
C615        F621   1.358       .  S
C616        C617   1.404       .  A
C617        C618   1.400       .  A
C617        F620   1.358       .  S
C618        F622   1.358       .  S
C625        C626   1.409       .  A
C625        C630   1.395       .  A
C625        F643   1.358       .  S
C626        C627   1.405       .  A
C626        C631   1.482       .  S
C627        C628   1.400       .  A
C627        F632   1.357       .  S
C628        C629   1.407       .  A
C628        F644   1.358       .  S
C629        C630   1.403       .  A
C630        F633   1.358       .  S
C631        C634   1.403       .  A
C631        C638   1.409       .  A
C634        C635   1.391       .  A
C634        F639   1.359       .  S
C635        C636   1.401       .  A
C635        F641   1.351       .  S
C636        C637   1.406       .  A
C637        C638   1.405       .  A
C637        F640   1.357       .  S
C638        F642   1.357       .  S
C645        C646   1.402       .  A
C645        C650   1.395       .  A
C645        F663   1.358       .  S
C646        C647   1.404       .  A
C646        C651   1.474       .  S
C647        C648   1.401       .  A
C647        F652   1.358       .  S
C648        C649   1.406       .  A
C648        F664   1.358       .  S
C649        C650   1.408       .  A
C650        F653   1.358       .  S
C651        C654   1.404       .  A
C651        C658   1.405       .  A
C654        C655   1.398       .  A
C654        F659   1.357       .  S
C655        C656   1.403       .  A
C655        F661   1.358       .  S
C656        C657   1.403       .  A
C657        C658   1.396       .  A
C657        F660   1.358       .  S
C658        F662   1.358       .  S
C665        C666   1.404       .  A
C665        C670   1.403       .  A
C665        F683   1.358       .  S
C666        C667   1.403       .  A
C666        C671   1.482       .  S
C667        C668   1.397       .  A
C667        F672   1.358       .  S
C668        C669   1.411       .  A
C668        F684   1.356       .  S
C669        C670   1.412       .  A
C670        F673   1.358       .  S
C671        C674   1.407       .  A
C671        C678   1.404       .  A
C674        C675   1.405       .  A
C674        F679   1.358       .  S
C675        C676   1.409       .  A
C675        F681   1.358       .  S
C676        C677   1.404       .  A
C677        C678   1.396       .  A
C677        F680   1.357       .  S
C678        F682   1.358       .  S
C685        C686   1.403       .  A
C685        C690   1.392       .  A
C685        F703   1.358       .  S
C686        C687   1.406       .  A
C686        C691   1.477       .  S
C687        C688   1.401       .  A
C687        F692   1.358       .  S
C688        C689   1.407       .  A
C688        F704   1.357       .  S
C689        C690   1.408       .  A
C690        F693   1.358       .  S
C691        C694   1.405       .  A
C691        C698   1.406       .  A
C694        C695   1.393       .  A
C694        F699   1.358       .  S
C695        C696   1.404       .  A
C695        F701   1.358       .  S
C696        C697   1.405       .  A
C697        C698   1.399       .  A
C697        F700   1.358       .  S
C698        F702   1.358       .  S
C705        C706   1.406       .  A
C705        C710   1.398       .  A
C705        F723   1.358       .  S
C706        C707   1.405       .  A
C706        C711   1.476       .  S
C707        C708   1.394       .  A
C707        F712   1.358       .  S
C708        C709   1.404       .  A
C708        F724   1.358       .  S
C709        C710   1.405       .  A
C710        F713   1.358       .  S
C711        C714   1.406       .  A
C711        C718   1.405       .  A
C714        C715   1.397       .  A
C714        F719   1.358       .  S
C715        C716   1.404       .  A
C715        F721   1.358       .  S
C716        C717   1.405       .  A
C717        C718   1.394       .  A
C717        F720   1.358       .  S
C718        F722   1.358       .  S
C725        C726   1.404       .  A
C725        C730   1.395       .  A
C725        F743   1.358       .  S
C726        C727   1.402       .  A
C726        C731   1.470       .  S
C727        C728   1.399       .  A
C727        F732   1.357       .  S
C728        C729   1.405       .  A
C728        F744   1.357       .  S
C729        C730   1.403       .  A
C730        F733   1.358       .  S
C731        C734   1.399       .  A
C731        C738   1.406       .  A
C734        C735   1.391       .  A
C734        F739   1.358       .  S
C735        C736   1.406       .  A
C735        F741   1.358       .  S
C736        C737   1.404       .  A
C737        C738   1.402       .  A
C737        F740   1.358       .  S
C738        F742   1.358       .  S
C745        C746   1.404       .  A
C745        C750   1.394       .  A
C745        F763   1.358       .  S
C746        C747   1.408       .  A
C746        C751   1.483       .  S
C747        C748   1.406       .  A
C747        F752   1.357       .  S
C748        C749   1.405       .  A
C748        F764   1.357       .  S
C749        C750   1.405       .  A
C750        F753   1.359       .  S
C751        C754   1.408       .  A
C751        C758   1.404       .  A
C754        C755   1.399       .  A
C754        F759   1.358       .  S
C755        C756   1.405       .  A
C755        F761   1.358       .  S
C756        C757   1.408       .  A
C757        C758   1.402       .  A
C757        F760   1.357       .  S
C758        F762   1.357       .  S
C765        C766   1.409       .  A
C765        C770   1.400       .  A
C765        F783   1.358       .  S
C766        C767   1.407       .  A
C766        C771   1.486       .  S
C767        C768   1.400       .  A
C767        F772   1.358       .  S
C768        C769   1.405       .  A
C768        F784   1.358       .  S
C769        C770   1.403       .  A
C770        F773   1.358       .  S
C771        C774   1.408       .  A
C771        C778   1.408       .  A
C774        C775   1.400       .  A
C774        F779   1.358       .  S
C775        C776   1.402       .  A
C775        F781   1.358       .  S
C776        C777   1.402       .  A
C777        C778   1.400       .  A
C777        F780   1.358       .  S
C778        F782   1.358       .  S
C785        C786   1.405       .  A
C785        C790   1.399       .  A
C785        F803   1.358       .  S
C786        C787   1.405       .  A
C786        C791   1.478       .  S
C787        C788   1.401       .  A
C787        F792   1.358       .  S
C788        C789   1.406       .  A
C788        F804   1.358       .  S
C789        C790   1.404       .  A
C790        F793   1.357       .  S
C791        C794   1.402       .  A
C791        C798   1.408       .  A
C794        C795   1.396       .  A
C794        F799   1.357       .  S
C795        C796   1.406       .  A
C795        F801   1.358       .  S
C796        C797   1.403       .  A
C797        C798   1.403       .  A
C797        F800   1.358       .  S
C798        F802   1.358       .  S
C805        C806   1.399       .  A
C805        C810   1.392       .  A
C805        F823   1.359       .  S
C806        C807   1.403       .  A
C806        C811   1.470       .  S
C807        C808   1.401       .  A
C807        F812   1.358       .  S
C808        C809   1.409       .  A
C808        F824   1.356       .  S
C809        C810   1.413       .  A
C810        F813   1.358       .  S
C811        C814   1.405       .  A
C811        C818   1.403       .  A
C814        C815   1.396       .  A
C814        F819   1.358       .  S
C815        C816   1.403       .  A
C815        F821   1.358       .  S
C816        C817   1.403       .  A
C817        C818   1.395       .  A
C817        F820   1.358       .  S
C818        F822   1.358       .  S
C825        C826   1.401       .  A
C825        C830   1.396       .  A
C825        F843   1.358       .  S
C826        C827   1.403       .  A
C826        C831   1.479       .  S
C827        C828   1.403       .  A
C827        F832   1.358       .  S
C828        C829   1.413       .  A
C828        F844   1.356       .  S
C829        C830   1.412       .  A
C830        F833   1.358       .  S
C831        C834   1.405       .  A
C831        C838   1.404       .  A
C834        C835   1.402       .  A
C834        F839   1.358       .  S
C835        C836   1.407       .  A
C835        F841   1.358       .  S
C836        C837   1.406       .  A
C837        C838   1.397       .  A
C837        F840   1.358       .  S
C838        F842   1.358       .  S
C845        C846   1.405       .  A
C845        C850   1.394       .  A
C845        F863   1.358       .  S
C846        C847   1.408       .  A
C846        C851   1.480       .  S
C847        C848   1.401       .  A
C847        F852   1.358       .  S
C848        C849   1.405       .  A
C848        F864   1.358       .  S
C849        C850   1.403       .  A
C850        F853   1.358       .  S
C851        C854   1.407       .  A
C851        C858   1.407       .  A
C854        C855   1.392       .  A
C854        F859   1.358       .  S
C855        C856   1.402       .  A
C855        F861   1.358       .  S
C856        C857   1.407       .  A
C857        C858   1.402       .  A
C857        F860   1.358       .  S
C858        F862   1.358       .  S
C865        C866   1.406       .  A
C865        C870   1.402       .  A
C865        F883   1.357       .  S
C866        C867   1.407       .  A
C866        C871   1.483       .  S
C867        C868   1.396       .  A
C867        F872   1.358       .  S
C868        C869   1.405       .  A
C868        F884   1.358       .  S
C869        C870   1.407       .  A
C870        F873   1.357       .  S
C871        C874   1.404       .  A
C871        C878   1.408       .  A
C874        C875   1.392       .  A
C874        F879   1.358       .  S
C875        C876   1.406       .  A
C875        F881   1.358       .  S
C876        C877   1.407       .  A
C877        C878   1.406       .  A
C877        F880   1.358       .  S
C878        F882   1.358       .  S
C885        C886   1.401       .  A
C885        C890   1.397       .  A
C885        F903   1.358       .  S
C886        C887   1.405       .  A
C886        C891   1.477       .  S
C887        C888   1.404       .  A
C887        F892   1.358       .  S
C888        C889   1.408       .  A
C888        F904   1.358       .  S
C889        C890   1.408       .  A
C890        F893   1.357       .  S
C891        C894   1.405       .  A
C891        C898   1.403       .  A
C894        C895   1.403       .  A
C894        F899   1.358       .  S
C895        C896   1.409       .  A
C895        F901   1.358       .  S
C896        C897   1.406       .  A
C897        C898   1.397       .  A
C897        F900   1.358       .  S
C898        F902   1.358       .  S
C905        C906   1.405       .  A
C905        C910   1.397       .  A
C905        F923   1.358       .  S
C906        C907   1.406       .  A
C906        C911   1.482       .  S
C907        C908   1.402       .  A
C907        F912   1.358       .  S
C908        C909   1.407       .  A
C908        F924   1.358       .  S
C909        C910   1.407       .  A
C910        F913   1.358       .  S
C911        C914   1.407       .  A
C911        C918   1.404       .  A
C914        C915   1.406       .  A
C914        F919   1.358       .  S
C915        C916   1.407       .  A
C915        F921   1.358       .  S
C916        C917   1.406       .  A
C917        C918   1.394       .  A
C917        F920   1.358       .  S
C918        F922   1.358       .  S
C925        C926   1.405       .  A
C925        C930   1.398       .  A
C925        F943   1.358       .  S
C926        C927   1.406       .  A
C926        C931   1.483       .  S
C927        C928   1.402       .  A
C927        F932   1.358       .  S
C928        C929   1.407       .  A
C928        F944   1.357       .  S
C929        C930   1.407       .  A
C930        F933   1.358       .  S
C931        C934   1.406       .  A
C931        C938   1.405       .  A
C934        C935   1.401       .  A
C934        F939   1.358       .  S
C935        C936   1.408       .  A
C935        F941   1.357       .  S
C936        C937   1.409       .  A
C937        C938   1.398       .  A
C937        F940   1.358       .  S
C938        F942   1.358       .  S
C945        C946   1.405       .  A
C945        C950   1.395       .  A
C945        F963   1.358       .  S
C946        C947   1.405       .  A
C946        C951   1.477       .  S
C947        C948   1.398       .  A
C947        F952   1.358       .  S
C948        C949   1.405       .  A
C948        F964   1.357       .  S
C949        C950   1.406       .  A
C950        F953   1.358       .  S
C951        C954   1.405       .  A
C951        C958   1.406       .  A
C954        C955   1.394       .  A
C954        F959   1.358       .  S
C955        C956   1.406       .  A
C955        F961   1.358       .  S
C956        C957   1.406       .  A
C957        C958   1.399       .  A
C957        F960   1.358       .  S
C958        F962   1.358       .  S
C965        C966   1.407       .  A
C965        C970   1.395       .  A
C965        F983   1.359       .  S
C966        C967   1.404       .  A
C966        C971   1.476       .  S
C967        C968   1.398       .  A
C967        F972   1.357       .  S
C968        C969   1.405       .  A
C968        F984   1.357       .  S
C969        C970   1.404       .  A
C970        F973   1.358       .  S
C971        C974   1.407       .  A
C971        C978   1.405       .  A
C974        C975   1.401       .  A
C974        F979   1.358       .  S
C975        C976   1.403       .  A
C975        F981   1.358       .  S
C976        C977   1.399       .  A
C977        C978   1.391       .  A
C977        F980   1.358       .  S
C978        F982   1.358       .  S
C985        C986   1.408       .  A
C985        C990   1.397       .  A
C985       F1003   1.358       .  S
C986        C987   1.405       .  A
C986        C991   1.478       .  S
C987        C988   1.397       .  A
C987        F992   1.358       .  S
C988        C989   1.404       .  A
C988       F1004   1.357       .  S
C989        C990   1.403       .  A
C990        F993   1.358       .  S
C991        C994   1.406       .  A
C991        C998   1.406       .  A
C994        C995   1.395       .  A
C994        F999   1.358       .  S
C995        C996   1.403       .  A
C995       F1001   1.359       .  S
C996        C997   1.404       .  A
C997        C998   1.399       .  A
C997       F1000   1.358       .  S
C998       F1002   1.358       .  S
C1005      C1006   1.404       .  A
C1005      C1010   1.400       .  A
C1005      F1023   1.358       .  S
C1006      C1007   1.405       .  A
C1006      C1011   1.476       .  S
C1007      C1008   1.396       .  A
C1007      F1012   1.358       .  S
C1008      C1009   1.403       .  A
C1008      F1024   1.358       .  S
C1009      C1010   1.405       .  A
C1010      F1013   1.357       .  S
C1011      C1014   1.405       .  A
C1011      C1018   1.405       .  A
C1014      C1015   1.400       .  A
C1014      F1019   1.358       .  S
C1015      C1016   1.402       .  A
C1015      F1021   1.358       .  S
C1016      C1017   1.403       .  A
C1017      C1018   1.397       .  A
C1017      F1020   1.358       .  S
C1018      F1022   1.358       .  S
C1025      C1026   1.408       .  A
C1025      C1030   1.405       .  A
C1025      F1043   1.358       .  S
C1026      C1027   1.406       .  A
C1026      C1031   1.488       .  S
C1027      C1028   1.401       .  A
C1027      F1032   1.358       .  S
C1028      C1029   1.406       .  A
C1028      F1044   1.358       .  S
C1029      C1030   1.406       .  A
C1030      F1033   1.357       .  S
C1031      C1034   1.408       .  A
C1031      C1038   1.408       .  A
C1034      C1035   1.404       .  A
C1034      F1039   1.357       .  S
C1035      C1036   1.405       .  A
C1035      F1041   1.357       .  S
C1036      C1037   1.404       .  A
C1037      C1038   1.399       .  A
C1037      F1040   1.358       .  S
C1038      F1042   1.358       .  S
C1045      C1046   1.407       .  A
C1045      C1050   1.405       .  A
C1045      F1063   1.358       .  S
C1046      C1047   1.401       .  A
C1046      C1051   1.479       .  S
C1047      C1048   1.394       .  A
C1047      F1052   1.358       .  S
C1048      C1049   1.409       .  A
C1048      F1064   1.358       .  S
C1049      C1050   1.407       .  A
C1050      F1053   1.358       .  S
C1051      C1054   1.406       .  A
C1051      C1058   1.405       .  A
C1054      C1055   1.397       .  A
C1054      F1059   1.358       .  S
C1055      C1056   1.403       .  A
C1055      F1061   1.358       .  S
C1056      C1057   1.405       .  A
C1057      C1058   1.401       .  A
C1057      F1060   1.358       .  S
C1058      F1062   1.358       .  S
C1065      C1066   1.408       .  A
C1065      C1070   1.398       .  A
C1065      F1083   1.358       .  S
C1066      C1067   1.405       .  A
C1066      C1071   1.482       .  S
C1067      C1068   1.399       .  A
C1067      F1072   1.358       .  S
C1068      C1069   1.407       .  A
C1068      F1084   1.358       .  S
C1069      C1070   1.403       .  A
C1070      F1073   1.358       .  S
C1071      C1074   1.407       .  A
C1071      C1078   1.406       .  A
C1074      C1075   1.400       .  A
C1074      F1079   1.357       .  S
C1075      C1076   1.405       .  A
C1075      F1081   1.358       .  S
C1076      C1077   1.403       .  A
C1077      C1078   1.397       .  A
C1077      F1080   1.358       .  S
C1078      F1082   1.358       .  S
C1085      C1086   1.408       .  A
C1085      C1090   1.402       .  A
C1085      F1103   1.358       .  S
C1086      C1087   1.405       .  A
C1086      C1091   1.483       .  S
C1087      C1088   1.393       .  A
C1087      F1092   1.359       .  S
C1088      C1089   1.407       .  A
C1088      F1104   1.358       .  S
C1089      C1090   1.406       .  A
C1090      F1093   1.357       .  S
C1091      C1094   1.408       .  A
C1091      C1098   1.407       .  A
C1094      C1095   1.394       .  A
C1094      F1099   1.358       .  S
C1095      C1096   1.402       .  A
C1095      F1101   1.358       .  S
C1096      C1097   1.405       .  A
C1097      C1098   1.399       .  A
C1097      F1100   1.358       .  S
C1098      F1102   1.357       .  S
C1105      C1106   1.404       .  A
C1105      C1110   1.392       .  A
C1105      F1123   1.358       .  S
C1106      C1107   1.406       .  A
C1106      C1111   1.474       .  S
C1107      C1108   1.398       .  A
C1107      F1112   1.358       .  S
C1108      C1109   1.404       .  A
C1108      F1124   1.358       .  S
C1109      C1110   1.405       .  A
C1110      F1113   1.358       .  S
C1111      C1114   1.406       .  A
C1111      C1118   1.404       .  A
C1114      C1115   1.393       .  A
C1114      F1119   1.358       .  S
C1115      C1116   1.404       .  A
C1115      F1121   1.358       .  S
C1116      C1117   1.406       .  A
C1117      C1118   1.397       .  A
C1117      F1120   1.358       .  S
C1118      F1122   1.358       .  S
