geometry optimzed in LAMMPS
_audit_creation_date              2020-11-30 
_audit_creation_method            'lammps2cif' 
_symmetry_space_group_name_H-M    'P1' 
_symmetry_Int_Tables_number       1 
_symmetry_cell_setting            triclinic 
loop_ 
_symmetry_equiv_pos_as_xyz 
  x,y,z 
_cell_length_a                    27.88297077 
_cell_length_b                    27.889700279578165 
_cell_length_c                    28.016588619243528 
_cell_angle_alpha                 90.57794274905527 
_cell_angle_beta                  89.81862671933719 
_cell_angle_gamma                 88.77746238831266 
loop_ 
_atom_site_label 
_atom_site_type_symbol 
_atom_site_fract_x 
_atom_site_fract_y 
_atom_site_fract_z 
_atom_site_charge 
C1          C  0.06447798  0.66669349  0.99681391     0.79600
N2          N  0.08244442  0.68793367  0.03519337    -0.78700
C3          C  0.11463758  0.72339097  0.03269420     0.82100
N4          N  0.12997235  0.73854924  0.98904530    -0.78600
C5          C  0.10920255  0.71844148  0.94942384     0.82200
N6          N  0.07708833  0.68290917  0.95412892    -0.80300
C7          C  0.29030531  0.59068653  0.98380795     0.79600
N8          N  0.27551490  0.61215513  0.94352665    -0.78700
C9          C  0.25766042  0.65731074  0.94323983     0.82100
N10         N  0.25368204  0.68199789  0.98694020    -0.78600
C11         C  0.26866439  0.65974302  0.02922863     0.82200
N12         N  0.28649718  0.61422150  0.02617890    -0.80300
C13         C  0.81364502  0.12723512  0.99446819     0.79600
N14         N  0.79183163  0.14016210  0.95306613    -0.78700
C15         C  0.75099134  0.16792073  0.95418920     0.82100
N16         N  0.73164738  0.18182975  0.99729656    -0.78600
C17         C  0.75515033  0.17018145  0.03852056     0.82200
N18         N  0.79542830  0.14289496  0.03650584    -0.80300
C19         C  0.55203347  0.32583135  0.00327301     0.79600
N20         N  0.56233073  0.30435806  0.96085744    -0.78700
C21         C  0.58529895  0.26129790  0.95814153     0.82100
N22         N  0.59859754  0.23889164  0.00060561    -0.78600
C23         C  0.58861691  0.26116453  0.04445360     0.82200
N24         N  0.56579607  0.30438585  0.04424800    -0.80300
C25         C  0.62614694  0.94727202  0.14468384     0.79600
N26         N  0.64803037  0.98871833  0.15191423    -0.78700
C27         C  0.68851408  0.99123433  0.17838173     0.82100
N28         N  0.70907962  0.95000954  0.19710371    -0.78600
C29         C  0.68771452  0.90721719  0.18652864     0.82200
N30         N  0.64645183  0.90751524  0.16182483    -0.80300
C31         C  0.58696799  0.94076366  0.38236797     0.79600
N32         N  0.60786720  0.90114641  0.36406597    -0.78700
C33         C  0.64138876  0.90273391  0.33037258     0.82100
N34         N  0.65666965  0.94779663  0.31553029    -0.78600
C35         C  0.63508350  0.98997391  0.33437435     0.82200
N36         N  0.59933300  0.98506054  0.36706325    -0.80300
C37         C  0.23728231  0.94945315  0.80276796     0.79600
N38         N  0.21191777  0.91107449  0.79135545    -0.78700
C39         C  0.16378668  0.91336994  0.78727025     0.82100
N40         N  0.13945262  0.95623934  0.79130343    -0.78600
C41         C  0.16558371  0.99599435  0.80145048     0.82200
N42         N  0.21368380  0.99192220  0.80757294    -0.80300
C43         C  0.23179064  0.95569115  0.58884557     0.79600
N44         N  0.22373694  0.99783541  0.61235983    -0.78700
C45         C  0.20479194  0.99923952  0.65672333     0.82100
N46         N  0.19361198  0.95585062  0.67836926    -0.78600
C47         C  0.20454878  0.91242733  0.65512561     0.82200
N48         N  0.22232577  0.91403731  0.61084588    -0.80300
C49         C  0.81762104  0.76279489  0.98552875     0.79600
N50         N  0.79910905  0.75044330  0.02810563    -0.78700
C51         C  0.75350999  0.73586970  0.03178171     0.82100
N52         N  0.72523045  0.73301208  0.99190867    -0.78600
C53         C  0.74417381  0.74503346  0.94869458     0.82200
N54         N  0.78990855  0.75923592  0.94635343    -0.80300
C55         C  0.51465859  0.63623101  0.99907125     0.79600
N56         N  0.53323290  0.64591477  0.95549695    -0.78700
C57         C  0.57831695  0.66227634  0.95056791     0.82100
N58         N  0.60588475  0.66860586  0.99168431    -0.78600
C59         C  0.58802454  0.65561184  0.03622818     0.82200
N60         N  0.54266154  0.64022608  0.03839418    -0.80300
C61         C  0.07689468  0.10849786  0.01693892     0.79600
N62         N  0.09362158  0.13306209  0.05442611    -0.78700
C63         C  0.10968288  0.17782394  0.04971462     0.82100
N64         N  0.11004049  0.19892047  0.00577073    -0.78600
C65         C  0.09134014  0.17472524  0.96739103     0.82200
N66         N  0.07527143  0.12954964  0.97358202    -0.80300
C67         C  0.33566080  0.27321858  0.99744301     0.79600
N68         N  0.31525405  0.27042814  0.04143962    -0.78700
C69         C  0.26995668  0.25512951  0.04731803     0.82100
N70         N  0.24419508  0.24201132  0.00659776    -0.78600
C71         C  0.26412807  0.24760545  0.96128357     0.82200
N72         N  0.30951623  0.26240632  0.95833400    -0.80300
C73         C  0.70489847  0.93878935  0.88585679     0.79600
N74         N  0.69320437  0.98280121  0.86899978    -0.78700
C75         C  0.69639153  0.99118944  0.82145494     0.82100
N76         N  0.70331576  0.95315804  0.79040530    -0.78600
C77         C  0.71413929  0.90895406  0.80869248     0.82200
N78         N  0.71934480  0.90432314  0.85567547    -0.80300
C79         C  0.53639422  0.94858663  0.67579926     0.79600
N80         N  0.55860123  0.99096318  0.67812556    -0.78700
C81         C  0.60716098  0.99330936  0.67982278     0.82100
N82         N  0.63437193  0.95067732  0.67713315    -0.78600
C83         C  0.61097507  0.90716059  0.67315050     0.82200
N84         N  0.56288117  0.90783966  0.67406232    -0.80300
C85         C  0.15606503  0.97833028  0.09411643     0.79600
N86         N  0.15679249  0.93401492  0.11384512    -0.78700
C87         C  0.15297919  0.92839648  0.16200419     0.82100
N88         N  0.15040483  0.96839707  0.19111194    -0.78600
C89         C  0.15045426  0.01304875  0.17101686     0.82200
N90         N  0.15325772  0.01700392  0.12306369    -0.80300
C91         C  0.27431170  0.96667777  0.39308033     0.79600
N92         N  0.25863261  0.92599704  0.37216454    -0.78700
C93         C  0.22731969  0.92607217  0.33610812     0.82100
N94         N  0.21063624  0.97048896  0.31985385    -0.78600
C95         C  0.22815494  0.01287062  0.33995280     0.82200
N96         N  0.25997948  0.00971920  0.37613084    -0.80300
C97         C  0.91193081  0.06796538  0.82506324     0.79600
N98         N  0.95409061  0.08929331  0.81580156    -0.78700
C99         C  0.95514885  0.12996274  0.78974808     0.82100
N100        N  0.91331455  0.15033197  0.77361323    -0.78600
C101        C  0.87112976  0.12783012  0.78184758     0.82200
N102        N  0.87095141  0.08715737  0.80739406    -0.80300
C103        C  0.91336637  0.30883977  0.62982479     0.79600
N104        N  0.95381468  0.30372314  0.65525307    -0.78700
C105        C  0.95350958  0.28784692  0.70035839     0.82100
N106        N  0.90915876  0.27672375  0.72065971    -0.78600
C107        C  0.86673654  0.28253913  0.69415950     0.82200
N108        N  0.87027406  0.29889864  0.64905343    -0.80300
C109        C  0.90879710  0.81107605  0.84589866     0.79600
N110        N  0.87016011  0.79853808  0.82074622    -0.78700
C111        C  0.87337101  0.77732467  0.77783043     0.82100
N112        N  0.91743628  0.76705675  0.75875091    -0.78600
C113        C  0.95743602  0.78117188  0.78296444     0.82200
N114        N  0.95293907  0.80219240  0.82698941    -0.80300
C115        C  0.92558202  0.54800970  0.66193194     0.79600
N116        N  0.96477285  0.57215281  0.67484856    -0.78700
C117        C  0.96216561  0.61210022  0.70136713     0.82100
N118        N  0.91727439  0.62856369  0.71684517    -0.78600
C119        C  0.87620811  0.60452788  0.70275028     0.82200
N120        N  0.88138704  0.56481291  0.67499116    -0.80300
C121        C  0.92710775  0.85230129  0.22930774     0.79600
N122        N  0.97064782  0.83249537  0.22157778    -0.78700
C123        C  0.97649880  0.78591834  0.20943091     0.82100
N124        N  0.93713182  0.75751719  0.20464661    -0.78600
C125        C  0.89244832  0.77815300  0.21087669     0.82200
N126        N  0.88833891  0.82512227  0.22385331    -0.80300
C127        C  0.95008998  0.59051100  0.35133694     0.79600
N128        N  0.98887693  0.60047814  0.32587771    -0.78700
C129        C  0.98627798  0.62115864  0.28351979     0.82100
N130        N  0.94084489  0.63088479  0.26437342    -0.78600
C131        C  0.89952986  0.61921504  0.29026052     0.82200
N132        N  0.90543977  0.60067140  0.33460975    -0.80300
C133        C  0.94502570  0.13775887  0.32156165     0.79600
N134        N  0.90214871  0.13514264  0.29937698    -0.78700
C135        C  0.89637351  0.14771494  0.25316998     0.82100
N136        N  0.93483941  0.16339370  0.22769106    -0.78600
C137        C  0.97823419  0.16505169  0.25019443     0.82200
N138        N  0.98252058  0.15265928  0.29649039    -0.80300
C139        C  0.92571894  0.37300051  0.32599839     0.79600
N140        N  0.88398099  0.34942822  0.31810272    -0.78700
C141        C  0.88402032  0.30627997  0.29465894     0.82100
N142        N  0.92810547  0.28595716  0.28054319    -0.78600
C143        C  0.97060090  0.30891890  0.29132775     0.82200
N144        N  0.96777593  0.35192289  0.31276133    -0.80300
C145        C  0.27638897  0.46710936  0.35321685     0.79600
N146        N  0.24996919  0.42743215  0.35088891    -0.78700
C147        C  0.20973625  0.42675854  0.32433434     0.82100
N148        N  0.19501334  0.46738130  0.30068645    -0.78600
C149        C  0.22155833  0.50793475  0.30512575     0.82200
N150        N  0.26235509  0.50678612  0.33016815    -0.80300
C151        C  0.12450926  0.46088362  0.08051901     0.79600
N152        N  0.13221798  0.42178884  0.10757789    -0.78700
C153        C  0.14691418  0.42431119  0.15272419     0.82100
N154        N  0.15679471  0.46923866  0.17191113    -0.78600
C155        C  0.14754182  0.51060291  0.14548514     0.82200
N156        N  0.13086628  0.50541864  0.09998210    -0.80300
O157        O  0.11263695  0.71277904  0.11224438    -0.87100
O158        O  0.33493260  0.78227802  0.24800342    -0.87200
O159        O  0.18803147  0.85050850  0.15668262    -0.88900
O160        O  0.24990431  0.72419863  0.08696234    -0.87700
O161        O  0.26424379  0.64842338  0.11556084    -0.87200
O162        O  0.13757634  0.86776670  0.22036884    -0.88600
O163        O  0.30917901  0.78568272  0.17025722    -0.87100
O164        O  0.17240567  0.76069076  0.08565953    -0.86700
Zr165      Zr  0.21969275  0.76713634  0.15928948     2.84300
O166        O  0.26682439  0.72133790  0.21046595    -1.08700
O167        O  0.14161582  0.76201180  0.19345948    -1.09400
C168        C  0.13443914  0.73574209  0.07944937     1.06000
C169        C  0.34328857  0.78783353  0.20287173     1.06000
C170        C  0.15968222  0.87906118  0.18128246     1.09000
C171        C  0.26128656  0.67936616  0.08027892     1.06700
H172        H  0.22554694  0.83090324  0.23572943     0.32300
O173        O  0.21389752  0.79872371  0.23771583    -1.29600
H174        H  0.18628174  0.67330046  0.12812576     0.32000
O175        O  0.18949179  0.68785769  0.15914436    -1.31300
O176        O  0.26513441  0.72513033  0.37384149    -0.87100
O177        O  0.04081832  0.64872291  0.22303658    -0.88600
O178        O  0.17100515  0.86858163  0.30464336    -0.87100
O179        O  0.32794562  0.64275836  0.22665407    -0.87200
O180        O  0.20272586  0.56988320  0.17327375    -0.86900
O181        O  0.05351556  0.79300336  0.24030691    -0.86700
O182        O  0.12116301  0.70382497  0.38554390    -0.87100
O183        O  0.17845831  0.58101775  0.31148896    -0.86500
O184        O  0.11047464  0.78137860  0.35969415    -0.87600
O185        O  0.23495089  0.56957735  0.25194496    -0.86800
O186        O  0.24855078  0.84214019  0.31632143    -0.87200
O187        O  0.03793526  0.72826622  0.19157151    -0.86900
O188        O  0.12417120  0.59458319  0.16540406    -0.86500
O189        O  0.33419309  0.70589999  0.27978482    -0.86900
O190        O  0.20483646  0.67165167  0.38780401    -0.87200
O191        O  0.06960806  0.63941852  0.29891486    -0.88600
Zr192      Zr  0.26225522  0.75404313  0.28920317     2.83100
Zr193      Zr  0.11275757  0.68274468  0.19142179     2.83500
Zr194      Zr  0.13566956  0.79571640  0.27140158     2.84100
Zr195      Zr  0.24211830  0.64167817  0.20422999     2.83400
Zr196      Zr  0.15619930  0.66666980  0.31456776     2.84200
O197        O  0.16401345  0.63640689  0.23709655    -1.09100
O198        O  0.18429840  0.74663871  0.31833331    -1.08600
C199        C  0.24160662  0.69602979  0.40127483     1.06000
C200        C  0.03490815  0.63738368  0.26673309     1.08600
C201        C  0.21475514  0.87622892  0.31693892     1.06200
C202        C  0.35142820  0.66959935  0.25618378     1.06500
C203        C  0.15846001  0.56135973  0.16329350     1.06100
C204        C  0.02573893  0.76735580  0.21352359     1.05700
C205        C  0.10887707  0.74798130  0.39316669     1.06100
C206        C  0.20847617  0.55492572  0.28657476     1.05600
H207        H  0.07584247  0.71925736  0.28168600     0.32300
O208        O  0.10791171  0.71702199  0.26883780    -1.30200
H209        H  0.25655596  0.65358050  0.30380837     0.32300
O210        O  0.23579462  0.67308741  0.28402635    -1.31600
C211        C  0.31174159  0.24762877  0.51149649     0.79600
N212        N  0.28772574  0.24837888  0.47028927    -0.78700
C213        C  0.24009849  0.24505489  0.46818192     0.82100
N214        N  0.21438107  0.24021537  0.50971467    -0.78600
C215        C  0.23896423  0.23908166  0.55236699     0.82200
N216        N  0.28739342  0.24193163  0.55252952    -0.80300
C217        C  0.03836538  0.11296831  0.50153297     0.79600
N218        N  0.05297934  0.13120519  0.54329105    -0.78700
C219        C  0.08204990  0.16842604  0.54571165     0.82100
N220        N  0.09688677  0.18889060  0.50240982    -0.78600
C221        C  0.08214114  0.16927841  0.45826337     0.82200
N222        N  0.05331197  0.13088484  0.45947924    -0.80300
O223        O  0.16939189  0.07334066  0.83094925    -0.87100
O224        O  0.10334246  0.22616782  0.60681789    -0.87200
O225        O  0.02898018  0.12700827  0.74934293    -0.88900
O226        O  0.15039372  0.05839512  0.68891209    -0.87700
O227        O  0.22831064  0.08155905  0.67843998    -0.87200
O228        O  0.01357302  0.18847251  0.80354744    -0.88600
O229        O  0.09579610  0.14841165  0.63089887    -0.87100
O230        O  0.11837172  0.05757925  0.76800623    -0.86700
Zr231      Zr  0.11230869  0.13089188  0.72139411     2.84300
O232        O  0.16160534  0.17852348  0.67684808    -1.08700
O233        O  0.11538775  0.16267797  0.80058677    -1.09400
C234        C  0.14649436  0.04496839  0.80238778     1.06000
C235        C  0.09552620  0.18198669  0.59728586     1.06000
C236        C  0.00195120  0.15049628  0.77961241     1.09000
C237        C  0.19432211  0.04911518  0.67721603     1.06700
H238        H  0.04989092  0.20415906  0.71541026     0.32300
O239        O  0.08134714  0.20825229  0.72859753    -1.29600
H240        H  0.20426552  0.09458892  0.75730585     0.32000
O241        O  0.18994134  0.12627261  0.75635149    -1.31300
O242        O  0.14920207  0.34153735  0.68718969    -0.87100
O243        O  0.22486147  0.19438555  0.90656470    -0.88600
O244        O  0.00950593  0.27091669  0.76612685    -0.87100
O245        O  0.23952136  0.19899217  0.62546550    -0.87200
O246        O  0.31178659  0.14066212  0.75343554    -0.86900
O247        O  0.08020334  0.21775652  0.89325157    -0.86700
O248        O  0.17437691  0.35600849  0.81818437    -0.87100
O249        O  0.29978830  0.28078118  0.76085865    -0.86500
O250        O  0.09623732  0.33141470  0.82140160    -0.87600
O251        O  0.30913250  0.21745944  0.70773171    -0.86800
O252        O  0.03993764  0.28079809  0.69075782    -0.87200
O253        O  0.14092192  0.16135254  0.90295893    -0.86900
O254        O  0.28250401  0.13584955  0.82965812    -0.86500
O255        O  0.17934560  0.25506894  0.61139953    -0.86900
O256        O  0.20826556  0.35278541  0.74336791    -0.87200
O257        O  0.24222518  0.26942302  0.87929772    -0.88600
Zr258      Zr  0.12911388  0.25760302  0.68301773     2.83100
Zr259      Zr  0.19297054  0.15730463  0.83422925     2.83500
Zr260      Zr  0.08272496  0.24149787  0.80737641     2.84100
Zr261      Zr  0.23936086  0.16899282  0.70787565     2.83400
Zr262      Zr  0.21496474  0.28125626  0.79213777     2.84200
O263        O  0.24247646  0.20169650  0.78611224    -1.09100
O264        O  0.13536823  0.28567461  0.76136663    -1.08600
C265        C  0.18041950  0.36680240  0.70928192     1.06000
C266        C  0.24066096  0.23700211  0.91337764     1.08600
C267        C  0.00377300  0.28009703  0.72128904     1.06200
C268        C  0.21666618  0.22974753  0.59885956     1.06500
C269        C  0.31826585  0.13364572  0.79884466     1.06100
C270        C  0.10483910  0.18667610  0.91818271     1.05700
C271        C  0.12900071  0.36502613  0.82305426     1.06100
C272        C  0.32407808  0.25504246  0.72948780     1.05600
H273        H  0.15964610  0.24975348  0.86949792     0.32300
O274        O  0.16149367  0.23664075  0.83756387    -1.30200
H275        H  0.22870880  0.26912711  0.69326165     0.32300
O276        O  0.20882344  0.24962301  0.71322099    -1.31600
C277        C  0.32567399  0.67990382  0.50403566     0.79600
N278        N  0.30775599  0.69073827  0.46016721    -0.78700
C279        C  0.25966434  0.68807563  0.45134742     0.82100
N280        N  0.22904406  0.67928639  0.48889901    -0.78600
C281        C  0.24757009  0.67026738  0.53340676     0.82200
N282        N  0.29543802  0.66954435  0.53943795    -0.80300
C283        C  0.02983638  0.80656823  0.48441946     0.79600
N284        N  0.05227947  0.79370510  0.44329444    -0.78700
C285        C  0.08829005  0.76057180  0.44262844     0.82100
N286        N  0.10227780  0.73990067  0.48611092    -0.78600
C287        C  0.08009285  0.75483998  0.52884074     0.82200
N288        N  0.04461448  0.78766421  0.52614817    -0.80300
C289        C  0.23312666  0.44604394  0.62444788     0.79600
N290        N  0.22201060  0.40721643  0.64951885    -0.78700
C291        C  0.19152033  0.41122989  0.68660333     0.82100
N292        N  0.17314765  0.45505560  0.70018895    -0.78600
C293        C  0.18359313  0.49383408  0.67287375     0.82200
N294        N  0.21296051  0.48879113  0.63518567    -0.80300
C295        C  0.04851078  0.46077187  0.86978846     0.79600
N296        N  0.06931641  0.41906510  0.85594345    -0.78700
C297        C  0.11157298  0.41634030  0.83334178     0.82100
N298        N  0.13375754  0.45916139  0.82183444    -0.78600
C299        C  0.11154939  0.50326199  0.83374791     0.82200
N300        N  0.06898836  0.50282639  0.85791288    -0.80300
O301        O  0.09929569  0.70172104  0.87032334    -0.87100
O302        O  0.31463505  0.76754206  0.72142863    -0.87200
O303        O  0.23408280  0.71939016  0.88621163    -0.88900
O304        O  0.16533658  0.83726990  0.81423695    -0.87700
O305        O  0.11569697  0.85560971  0.75062921    -0.87200
O306        O  0.23726709  0.64123309  0.86010385    -0.88600
O307        O  0.28914741  0.78323897  0.79808898    -0.87100
O308        O  0.15822184  0.75437596  0.88981442    -0.86700
Zr309      Zr  0.20082056  0.75697332  0.81422576     2.84300
O310        O  0.19090862  0.78471589  0.73632941    -1.08700
O311        O  0.16840596  0.67916582  0.81914421    -1.09400
C312        C  0.12303293  0.72725685  0.90026687     1.06000
C313        C  0.32288094  0.78139012  0.76432390     1.06000
C314        C  0.24172309  0.67431589  0.89378741     1.09000
C315        C  0.14296780  0.86649822  0.78593876     1.06700
H316        H  0.27728594  0.70223884  0.78017926     0.32300
O317        O  0.24543336  0.70441929  0.76719666    -1.29600
H318        H  0.10078515  0.77377656  0.80459461     0.32000
O319        O  0.12065026  0.75354795  0.78410425    -1.31300
O320        O  0.24289701  0.70724335  0.60738727    -0.87100
O321        O  0.01798827  0.64574634  0.75530776    -0.88600
O322        O  0.29852244  0.62279992  0.74578890    -0.87100
O323        O  0.14896741  0.85409568  0.67917276    -0.87200
O324        O  0.02776269  0.78509312  0.73455877    -0.86900
O325        O  0.17435626  0.55762073  0.80780762    -0.86700
O326        O  0.15151387  0.57059153  0.66142638    -0.87100
O327        O  0.10332779  0.69497099  0.58727019    -0.86500
O328        O  0.20100763  0.55502622  0.72572206    -0.87600
O329        O  0.08985078  0.77184544  0.61489628    -0.86800
O330        O  0.31510631  0.68746366  0.69815980    -0.87200
O331        O  0.09810877  0.58831257  0.81660271    -0.86900
O332        O  0.02133010  0.72827515  0.79316634    -0.86500
O333        O  0.22739939  0.82797543  0.67248008    -0.86900
O334        O  0.18291626  0.65472208  0.58881897    -0.87200
O335        O  0.04289236  0.63481030  0.67755209    -0.88600
Zr336      Zr  0.24111307  0.73694641  0.68953031     2.83100
Zr337      Zr  0.09083245  0.67550042  0.78888378     2.83500
Zr338      Zr  0.21439473  0.62732514  0.77249435     2.84100
Zr339      Zr  0.11134684  0.78167465  0.70468055     2.83400
Zr340      Zr  0.13105684  0.65606859  0.66060875     2.84200
O341        O  0.08246000  0.70426686  0.70985813    -1.09100
O342        O  0.20973962  0.65855032  0.69367683    -1.08600
C343        C  0.22120757  0.67816679  0.57868818     1.06000
C344        C  0.01000904  0.63391711  0.71178310     1.08600
C345        C  0.32718292  0.64859763  0.72054444     1.06200
C346        C  0.19350996  0.86217304  0.67196031     1.06500
C347        C  0.00506724  0.76367046  0.76847791     1.06100
C348        C  0.12959383  0.55263173  0.81873353     1.05700
C349        C  0.17642873  0.54258568  0.68883656     1.06100
C350        C  0.09249315  0.73944716  0.57989023     1.05600
H351        H  0.12180337  0.59723387  0.73822292     0.32300
O352        O  0.13676934  0.62797151  0.73879314    -1.30200
H353        H  0.16756801  0.74675575  0.62728682     0.32300
O354        O  0.16362202  0.73388881  0.65876804    -1.31600
C355        C  0.66716488  0.44539137  0.39263778     0.79600
N356        N  0.67200460  0.48677540  0.36857606    -0.69100
C357        C  0.65807299  0.49001016  0.32211851     0.82100
N358        N  0.64510343  0.44931120  0.29819063    -0.78600
C359        C  0.64194873  0.40743397  0.32296405     0.82200
N360        N  0.65047242  0.40702995  0.36995555    -0.80300
C361        C  0.81609710  0.43980594  0.13611765     0.79600
N362        N  0.79203545  0.39987422  0.14759696    -0.78700
C363        C  0.74608974  0.40183830  0.16353743     0.82100
N364        N  0.72384012  0.44680242  0.16850418    -0.78600
C365        C  0.74862703  0.48812491  0.15683567     0.82200
N366        N  0.79445779  0.48336955  0.14123720    -0.80300
C367        C  0.44196609  0.64021336  0.34362739     0.79600
N368        N  0.40172065  0.65435906  0.32154733    -0.78700
C369        C  0.39870391  0.65492257  0.27354562     0.82100
N370        N  0.43879829  0.64547120  0.24626385    -0.78600
C371        C  0.48005303  0.63049471  0.26889550     0.82200
N372        N  0.48001608  0.62645689  0.31683455    -0.80300
C373        C  0.44398809  0.82007951  0.12170405     0.79600
N374        N  0.39999199  0.81299144  0.14070772    -0.78700
C375        C  0.39517056  0.79658784  0.18597200     0.82100
N376        N  0.43724035  0.78537945  0.21149003    -0.78600
C377        C  0.48236398  0.79242580  0.19072945     0.82200
N378        N  0.48378675  0.80980030  0.14641942    -0.80300
O379        O  0.67932068  0.82648769  0.17567953    -0.87100
O380        O  0.74814992  0.68137137  0.38901734    -0.87200
O381        O  0.70184948  0.84502193  0.30581121    -0.88900
O382        O  0.81943102  0.77092506  0.24709284    -0.87700
O383        O  0.83844879  0.71423604  0.18958633    -0.87200
O384        O  0.62433947  0.81921771  0.30879420    -0.88600
O385        O  0.76176366  0.75845358  0.36550170    -0.87100
O386        O  0.73157237  0.84836231  0.23438787    -0.86700
Zr387      Zr  0.73824923  0.77136323  0.27638151     2.84300
O388        O  0.76929148  0.69330235  0.26780041    -1.08700
O389        O  0.66028000  0.77581491  0.24266610    -1.09400
C390        C  0.70311026  0.85803859  0.19938683     1.06000
C391        C  0.75959582  0.72472439  0.39847231     1.06000
C392        C  0.65691772  0.85315357  0.31243297     1.09000
C393        C  0.84795863  0.75124066  0.21602386     1.06700
H394        H  0.68319851  0.73804523  0.35111042     0.32300
O395        O  0.68699276  0.72449004  0.31966304    -1.29600
H396        H  0.75288900  0.76258600  0.17649755     0.32000
O397        O  0.73405394  0.74176174  0.19611082    -1.31300
O398        O  0.69463730  0.56406232  0.31978487    -0.87100
O399        O  0.62513405  0.70658197  0.09357574    -0.88600
O400        O  0.60622044  0.69792182  0.36768274    -0.87100
O401        O  0.84020926  0.63587466  0.22898890    -0.87200
O402        O  0.76286550  0.69454724  0.10495830    -0.86900
O403        O  0.53780175  0.76584310  0.25318449    -0.86700
O404        O  0.55371119  0.61361814  0.22599136    -0.87100
O405        O  0.68473411  0.54562304  0.17352449    -0.86500
O406        O  0.54192598  0.68075548  0.27350472    -0.87600
O407        O  0.76101363  0.57427791  0.16402745    -0.86800
O408        O  0.67310611  0.65248261  0.38801549    -0.87200
O409        O  0.56714566  0.77405571  0.17737756    -0.86900
O410        O  0.69865204  0.74659707  0.09324472    -0.86500
O411        O  0.81250079  0.62899718  0.30576925    -0.86900
O412        O  0.64143409  0.54681653  0.25954598    -0.87200
O413        O  0.61352523  0.62907381  0.11674694    -0.88600
Zr414      Zr  0.72138158  0.64597411  0.31509954     2.83100
Zr415      Zr  0.65458674  0.74446731  0.16600680     2.83500
Zr416      Zr  0.61052737  0.72963918  0.28708917     2.84100
Zr417      Zr  0.76712735  0.66299519  0.18803521     2.83400
Zr418      Zr  0.63987299  0.61592036  0.20426066     2.84200
O419        O  0.68806053  0.66602849  0.15927027    -1.09100
O420        O  0.64327729  0.65050089  0.28214938    -1.08600
C421        C  0.66500523  0.53636193  0.29816696     1.06000
C422        C  0.61224756  0.66347757  0.08453243     1.08600
C423        C  0.63507746  0.67779272  0.39805379     1.06200
C424        C  0.84759183  0.62854734  0.27381045     1.06500
C425        C  0.73661011  0.72381427  0.07934723     1.06100
C426        C  0.53185374  0.77676846  0.20902847     1.05700
C427        C  0.52755096  0.64262798  0.25219608     1.06100
C428        C  0.72985304  0.53922465  0.16439183     1.05600
H429        H  0.57728725  0.69372215  0.19516156     0.32300
O430        O  0.60844269  0.69451092  0.20988089    -1.30200
H431        H  0.73232023  0.58402918  0.24138027     0.32300
O432        O  0.71882207  0.61583140  0.23726454    -1.31600
C433        C  0.61070193  0.77189090  0.48480433     0.79600
N434        N  0.61732723  0.74957954  0.52662825    -0.78700
C435        C  0.62875142  0.70235987  0.52946870     0.82100
N436        N  0.63610607  0.67583995  0.48843387    -0.78600
C437        C  0.63021212  0.69893319  0.44567018     0.82200
N438        N  0.61818993  0.74616212  0.44479261    -0.80300
C439        C  0.83918454  0.75774413  0.49868376     0.79600
N440        N  0.81337961  0.74746595  0.53805181    -0.78700
C441        C  0.76846429  0.73175372  0.53578893     0.82100
N442        N  0.74889894  0.72317175  0.49076046    -0.78600
C443        C  0.77501594  0.73425954  0.44967976     0.82200
N444        N  0.81938160  0.75162460  0.45500663    -0.80300
C445        C  0.42745613  0.56265794  0.70338277     0.79600
N446        N  0.46558429  0.58923364  0.71100421    -0.78700
C447        C  0.46115201  0.63608387  0.72053133     0.82100
N448        N  0.41662513  0.65796083  0.72255984    -0.78600
C449        C  0.37701304  0.63005479  0.71604757     0.82200
N450        N  0.38307863  0.58266921  0.70586851    -0.80300
C451        C  0.41430803  0.86494228  0.80810190     0.79600
N452        N  0.37311946  0.84436353  0.79433957    -0.78700
C453        C  0.37284809  0.80076303  0.77381307     0.82100
N454        N  0.41709369  0.77785423  0.76377514    -0.78600
C455        C  0.46006261  0.79915042  0.77772196     0.82200
N456        N  0.45701234  0.84203756  0.79998461    -0.80300
C457        C  0.73400043  0.44126197  0.66132354     0.79600
N458        N  0.71499547  0.48448587  0.67212613    -0.78700
C459        C  0.67011970  0.48964477  0.69098653     0.82100
N460        N  0.64325874  0.45017690  0.69995395    -0.78600
C461        C  0.66231042  0.40639942  0.68680641     0.82200
N462        N  0.70692396  0.40302504  0.66829351    -0.80300
C463        C  0.73925983  0.44988554  0.90842818     0.79600
N464        N  0.73282868  0.49357496  0.88741077    -0.78700
C465        C  0.71132136  0.49750428  0.84393051     0.82100
N466        N  0.69645180  0.45527684  0.82134108    -0.78600
C467        C  0.70577625  0.41066986  0.84194344     0.82200
N468        N  0.72644130  0.40986622  0.88488505    -0.80300
O469        O  0.74649148  0.70365580  0.87565910    -0.87100
O470        O  0.52032707  0.76649712  0.72504444    -0.87200
O471        O  0.67312720  0.83654713  0.81088263    -0.88900
O472        O  0.60534282  0.71750625  0.89075616    -0.87700
O473        O  0.59362131  0.63963806  0.86675031    -0.87200
O474        O  0.72279182  0.85135987  0.74678049    -0.88600
O475        O  0.54477500  0.78033560  0.80216601    -0.87100
O476        O  0.68307442  0.75636364  0.89066121    -0.86700
Zr477      Zr  0.63501003  0.75631228  0.81777361     2.84300
O478        O  0.58950913  0.70649196  0.77055970    -1.08700
O479        O  0.71291690  0.74757774  0.78366824    -1.09400
C480        C  0.72191904  0.73344773  0.90267353     1.06000
C481        C  0.51125816  0.77949968  0.76831540     1.06000
C482        C  0.70170222  0.86345910  0.78592565     1.09000
C483        C  0.59423972  0.67364815  0.89978442     1.06700
H484        H  0.62839788  0.81300169  0.74382696     0.32300
O485        O  0.64170887  0.78113737  0.73950007    -1.29600
H486        H  0.67139996  0.66583468  0.85525341     0.32000
O487        O  0.66812825  0.67735039  0.82336135    -1.31300
O488        O  0.60244464  0.70975543  0.60747740    -0.87100
O489        O  0.81754487  0.63443132  0.75820626    -0.88600
O490        O  0.67798833  0.84976815  0.67656535    -0.87100
O491        O  0.53489601  0.63533954  0.75627657    -0.87200
O492        O  0.65667002  0.55715086  0.81347755    -0.86900
O493        O  0.80400264  0.77958924  0.72949191    -0.86700
O494        O  0.73647301  0.68007596  0.59491576    -0.87100
O495        O  0.67767147  0.56785940  0.67222103    -0.86500
O496        O  0.74284802  0.75934863  0.61580501    -0.87600
O497        O  0.62758647  0.55146539  0.73521689    -0.86800
O498        O  0.60163535  0.82172738  0.66890190    -0.87200
O499        O  0.81449701  0.72119145  0.78657745    -0.86900
O500        O  0.73440213  0.58119348  0.82223177    -0.86500
O501        O  0.51954029  0.69146619  0.69825103    -0.86900
O502        O  0.66247897  0.65392952  0.59159140    -0.87200
O503        O  0.79192310  0.62050328  0.68157947    -0.88600
Zr504      Zr  0.59410601  0.73396857  0.69123553     2.83100
Zr505      Zr  0.74566628  0.66933227  0.79401310     2.83500
Zr506      Zr  0.71979126  0.77663879  0.70386131     2.84100
Zr507      Zr  0.61893715  0.62805622  0.77899641     2.83400
Zr508      Zr  0.70394571  0.64856852  0.66830983     2.84200
O509        O  0.69754492  0.62189906  0.74713245    -1.09100
O510        O  0.67164058  0.72696410  0.65974189    -1.08600
C511        C  0.62981879  0.68459468  0.57875400     1.06000
C512        C  0.82545413  0.62100159  0.71481714     1.08600
C513        C  0.63256601  0.85678239  0.67072826     1.06200
C514        C  0.50700427  0.65830811  0.72711723     1.06500
C515        C  0.70070625  0.54833048  0.82470420     1.06100
C516        C  0.82880953  0.75675613  0.76134902     1.05700
C517        C  0.74565883  0.72367887  0.58435832     1.06100
C518        C  0.65481260  0.53929220  0.69943056     1.05600
H519        H  0.78203360  0.70016725  0.70163729     0.32300
O520        O  0.75005888  0.69893413  0.71441802    -1.30200
H521        H  0.60368174  0.63338859  0.67844221     0.32300
O522        O  0.62351448  0.65372387  0.69788796    -1.31600
C523        C  0.44519850  0.35186533  0.30744025     0.79600
N524        N  0.48263864  0.32292339  0.29775046    -0.78700
C525        C  0.47703309  0.27736098  0.28421723     0.82100
N526        N  0.43187324  0.25931204  0.27989950    -0.78600
C527        C  0.39274844  0.28925621  0.28808797     0.82200
N528        N  0.39985178  0.33573038  0.30149120    -0.80300
C529        C  0.42708088  0.04839091  0.19350123     0.79600
N530        N  0.38626121  0.07355171  0.20205299    -0.78700
C531        C  0.38676685  0.12007527  0.21455058     0.82100
N532        N  0.43082551  0.14252122  0.21941677    -0.78600
C533        C  0.47320924  0.11753730  0.20771100     0.82200
N534        N  0.46985290  0.07094350  0.19545270    -0.80300
O535        O  0.76289582  0.20411555  0.11548533    -0.87100
O536        O  0.53388676  0.14287868  0.26064395    -0.87200
O537        O  0.67587212  0.07223348  0.16739486    -0.88900
O538        O  0.61424663  0.19766724  0.09868353    -0.87700
O539        O  0.60532488  0.27396442  0.12901729    -0.87200
O540        O  0.72739095  0.04904998  0.22760749    -0.88600
O541        O  0.55683155  0.13572387  0.18200436    -0.87100
O542        O  0.69574549  0.16075760  0.09675373    -0.86700
Zr543      Zr  0.64712717  0.15542270  0.16865699     2.84300
O544        O  0.60251568  0.20254392  0.22051295    -1.08700
O545        O  0.72668391  0.15352106  0.20049969    -1.09400
C546        C  0.73584901  0.18040984  0.08622959     1.06000
C547        C  0.52407423  0.13493599  0.21654924     1.06000
C548        C  0.70075177  0.04058358  0.19104382     1.09000
C549        C  0.60360143  0.24266374  0.09356716     1.06700
H550        H  0.63885354  0.09064448  0.24237557     0.32300
O551        O  0.65304473  0.12166792  0.24471411    -1.29600
H552        H  0.68568131  0.24531260  0.13738449     0.32000
O553        O  0.68322729  0.23146787  0.16862146    -1.31300
O554        O  0.62656590  0.19252455  0.37887329    -0.87100
O555        O  0.82944785  0.26742787  0.24080923    -0.88600
O556        O  0.69251828  0.04837952  0.30782626    -0.87100
O557        O  0.54962392  0.27497110  0.24374374    -0.87200
O558        O  0.67984435  0.34947430  0.18732931    -0.86900
O559        O  0.81742008  0.12260089  0.25976298    -0.86700
O560        O  0.74389558  0.20305776  0.39731078    -0.87100
O561        O  0.67779440  0.33135880  0.32313555    -0.86500
O562        O  0.74228309  0.12565679  0.36919718    -0.87600
O563        O  0.62660113  0.35135247  0.26181962    -0.86800
O564        O  0.61596016  0.07714999  0.32133622    -0.87200
O565        O  0.83468580  0.18205692  0.20616392    -0.86900
O566        O  0.75541408  0.31710638  0.17740219    -0.86500
O567        O  0.53437386  0.21573498  0.29836265    -0.86900
O568        O  0.67823160  0.24775510  0.40556700    -0.87200
O569        O  0.80162873  0.28321440  0.31676354    -0.88600
Zr570      Zr  0.60761975  0.16747871  0.29733474     2.83100
Zr571      Zr  0.76117759  0.23034323  0.20009807     2.83500
Zr572      Zr  0.73142426  0.12052800  0.27830681     2.84100
Zr573      Zr  0.63341567  0.27942411  0.21561002     2.83400
Zr574      Zr  0.71650001  0.25067304  0.32684146     2.84200
O575        O  0.71200352  0.27926305  0.24826379    -1.09100
O576        O  0.68533385  0.17186514  0.32580230    -1.08600
C577        C  0.64697928  0.21540748  0.41307507     1.06000
C578        C  0.83548622  0.28367709  0.28373524     1.08600
C579        C  0.64852366  0.04165035  0.32012476     1.06200
C580        C  0.52207322  0.25232088  0.27307916     1.06500
C581        C  0.72499529  0.35345727  0.17689200     1.06100
C582        C  0.84673179  0.14909320  0.23602737     1.05700
C583        C  0.74496241  0.15708632  0.40453618     1.06100
C584        C  0.64877726  0.36057566  0.30061298     1.05600
H585        H  0.79374846  0.19829381  0.29285430     0.32300
O586        O  0.76241541  0.19874963  0.27851807    -1.30200
H587        H  0.61620184  0.26646117  0.31521351     0.32300
O588        O  0.63712630  0.24720763  0.29482285    -1.31600
C589        C  0.41293965  0.28220998  0.63785590     0.79600
N590        N  0.37132658  0.27609460  0.66193981    -0.78700
C591        C  0.37025669  0.27072620  0.70998011     0.82100
N592        N  0.41260113  0.26845158  0.73455652    -0.78600
C593        C  0.45470158  0.27605302  0.71057053     0.82200
N594        N  0.45409138  0.28287844  0.66281133    -0.80300
C595        C  0.41345963  0.09068428  0.88432111     0.79600
N596        N  0.45547160  0.09967003  0.86187264    -0.78700
C597        C  0.45678408  0.11922959  0.81771027     0.82100
N598        N  0.41291077  0.13042800  0.79558235    -0.78600
C599        C  0.36923724  0.12203910  0.81868332     0.82200
N600        N  0.37110035  0.10234144  0.86298125    -0.80300
C601        C  0.59958061  0.12181912  0.47987285     0.79600
N602        N  0.63265415  0.14380330  0.45347192    -0.78700
C603        C  0.64079512  0.19100831  0.45944753     0.82100
N604        N  0.62909588  0.21244458  0.50199798    -0.78600
C605        C  0.60627551  0.18575798  0.53601866     0.82200
N606        N  0.58746586  0.14231967  0.52300952    -0.80300
C607        C  0.75952496  0.06902087  0.50464821     0.79600
N608        N  0.75237287  0.09565370  0.54396718    -0.78700
C609        C  0.74462126  0.14295788  0.54307284     0.82100
N610        N  0.74227501  0.16519767  0.49846170    -0.78600
C611        C  0.74849891  0.13776947  0.45635942     0.82200
N612        N  0.75720995  0.08963148  0.46087399    -0.80300
O613        O  0.74805241  0.20967102  0.88088124    -0.87100
O614        O  0.51236900  0.13915631  0.75263115    -0.87200
O615        O  0.60564175  0.19737207  0.90219808    -0.88900
O616        O  0.66063387  0.06888536  0.83001876    -0.87700
O617        O  0.71132208  0.05216698  0.76648072    -0.87200
O618        O  0.59504454  0.27324395  0.87236281    -0.88600
O619        O  0.54381135  0.12955647  0.82767212    -0.87100
O620        O  0.68846339  0.15647181  0.89829932    -0.86700
Zr621      Zr  0.63248562  0.15380560  0.83066825     2.84300
O622        O  0.63566652  0.12171403  0.75314063    -1.08700
O623        O  0.66143292  0.23344713  0.83004737    -1.09400
C624        C  0.72700345  0.17953390  0.90856105     1.06000
C625        C  0.50732299  0.12963112  0.79763340     1.06000
C626        C  0.59609557  0.24248675  0.90790141     1.09000
C627        C  0.68850287  0.04053266  0.80458758     1.06700
H628        H  0.55181997  0.20684835  0.79682346     0.32300
O629        O  0.58331626  0.20265760  0.78312218    -1.29600
H630        H  0.73147925  0.13819168  0.81531889     0.32000
O631        O  0.71021012  0.15758759  0.79597100    -1.31300
O632        O  0.58209187  0.17701329  0.61797096    -0.87100
O633        O  0.80916676  0.26669442  0.75655179    -0.88600
O634        O  0.52574852  0.28533520  0.75793964    -0.87100
O635        O  0.67163952  0.05083943  0.68964595    -0.87200
O636        O  0.79727479  0.12242982  0.74269002    -0.86900
O637        O  0.64969316  0.35399870  0.81052262    -0.86700
O638        O  0.65808745  0.32728507  0.66594430    -0.87100
O639        O  0.72457429  0.20873346  0.59830457    -0.86500
O640        O  0.61868389  0.35283502  0.73443488    -0.87600
O641        O  0.73651946  0.13343812  0.62897888    -0.86800
O642        O  0.51568490  0.22101439  0.70691851    -0.87200
O643        O  0.72684639  0.32651060  0.82274347    -0.86900
O644        O  0.81176162  0.18777858  0.79129835    -0.86500
O645        O  0.59339189  0.07788312  0.69055617    -0.86900
O646        O  0.64210354  0.22934771  0.59902690    -0.87200
O647        O  0.78089154  0.26699927  0.67970587    -0.88600
Zr648      Zr  0.58298592  0.16638156  0.70630879     2.83100
Zr649      Zr  0.73893498  0.23738700  0.79797643     2.83500
Zr650      Zr  0.61108550  0.28096316  0.78252670     2.84100
Zr651      Zr  0.71317277  0.12332733  0.71763802     2.83400
Zr652      Zr  0.69104346  0.24609207  0.67046312     2.84200
O653        O  0.74096020  0.20185907  0.72032596    -1.09100
O654        O  0.61309336  0.24527088  0.70486476    -1.08600
C655        C  0.60847000  0.19991430  0.58756390     1.06000
C656        C  0.81583941  0.27140478  0.71138503     1.08600
C657        C  0.50111469  0.25960956  0.72833615     1.06200
C658        C  0.62605401  0.04359917  0.68640269     1.06500
C659        C  0.82434039  0.14845280  0.76954745     1.06100
C660        C  0.69366449  0.36118107  0.82217096     1.05700
C661        C  0.64132595  0.35993496  0.69504435     1.06100
C662        C  0.73566051  0.16398881  0.59298248     1.05600
H663        H  0.70230144  0.31171772  0.74350992     0.32300
O664        O  0.68893445  0.28043898  0.74712071    -1.30200
H665        H  0.65810587  0.15153799  0.64353842     0.32300
O666        O  0.65998597  0.16814304  0.67353304    -1.31600
O667        O  0.10660274  0.23014108  0.11613717    -0.87100
O668        O  0.32953076  0.15471731  0.26865094    -0.87200
O669        O  0.24659805  0.20192794  0.10781255    -0.88900
O670        O  0.18872495  0.08575553  0.17696421    -0.87700
O671        O  0.13358690  0.06913389  0.23537046    -0.87200
O672        O  0.25258526  0.28047295  0.13178155    -0.88600
O673        O  0.30485172  0.14038484  0.19167365    -0.87100
O674        O  0.16715406  0.17295898  0.10891770    -0.86700
Zr675      Zr  0.21749071  0.16759719  0.18006523     2.84300
O676        O  0.21037056  0.13846555  0.25744296    -1.08700
O677        O  0.18628602  0.24654088  0.17367217    -1.09400
C678        C  0.13076497  0.19743980  0.09294882     1.06000
C679        C  0.33793316  0.14145919  0.22515761     1.06000
C680        C  0.25416518  0.24602983  0.09860143     1.09000
C681        C  0.15843564  0.05812143  0.19758988     1.06700
H682        H  0.29457328  0.21992578  0.21644031     0.32300
O683        O  0.26243703  0.21727247  0.22852957    -1.29600
H684        H  0.11922643  0.15575142  0.18486416     0.32000
O685        O  0.13756307  0.17525100  0.20649714    -1.31300
O686        O  0.24959132  0.21369082  0.39094873    -0.87100
O687        O  0.03234353  0.28457483  0.23610965    -0.88600
O688        O  0.31570733  0.29746162  0.25206492    -0.87100
O689        O  0.17008528  0.07086860  0.31306510    -0.87200
O690        O  0.05539224  0.13998655  0.23995436    -0.86900
O691        O  0.19857014  0.36748333  0.19002135    -0.86700
O692        O  0.16727106  0.35395733  0.33421064    -0.87100
O693        O  0.10900208  0.22942869  0.40141759    -0.86500
O694        O  0.22075583  0.36449230  0.27226150    -0.87600
O695        O  0.09930320  0.15314206  0.37216122    -0.86800
O696        O  0.32931456  0.23555790  0.30465476    -0.87200
O697        O  0.12199071  0.34319060  0.17410712    -0.86900
O698        O  0.03249986  0.21145048  0.20597850    -0.86500
O699        O  0.24628965  0.09739812  0.32656540    -0.86900
O700        O  0.18362639  0.26272819  0.40679624    -0.87200
O701        O  0.05295128  0.28894584  0.31523387    -0.88600
Zr702      Zr  0.25665788  0.18650280  0.30682563     2.83100
Zr703      Zr  0.10698736  0.25549647  0.19980798     2.83500
Zr704      Zr  0.23198865  0.29443904  0.22228325     2.84100
Zr705      Zr  0.12995902  0.14298392  0.28436415     2.83400
Zr706      Zr  0.14202329  0.26931099  0.33048730     2.84200
O707        O  0.09931604  0.22199360  0.27774838    -1.09100
O708        O  0.22270190  0.26465842  0.30109353    -1.08600
C709        C  0.22189534  0.23937840  0.41930681     1.06000
C710        C  0.02129638  0.29123736  0.28036984     1.08600
C711        C  0.34272642  0.27283907  0.28112000     1.06200
C712        C  0.21408100  0.06333948  0.32488188     1.06500
C713        C  0.02393380  0.17171015  0.22716619     1.06100
C714        C  0.15569472  0.37601489  0.17547680     1.05700
C715        C  0.19630515  0.37921026  0.30872235     1.06100
C716        C  0.09790492  0.18514934  0.40763974     1.05600
H717        H  0.13836015  0.33178094  0.25439893     0.32300
O718        O  0.15188086  0.29971515  0.25297163    -1.30200
H719        H  0.17781393  0.17716137  0.36379714     0.32300
O720        O  0.17693383  0.19091250  0.33242534    -1.31600
C721        C  0.39217802  0.00412178  0.98557878    -0.02600
C722        C  0.41347838  0.02765969  0.02479648     0.06000
C723        C  0.43517503  0.07202877  0.01705742    -0.08600
C724        C  0.43563587  0.09288555  0.97164960     0.03400
C725        C  0.41402738  0.06941846  0.93269699    -0.15800
C726        C  0.39321909  0.02471208  0.94005022    -0.09100
C727        C  0.41672833  0.00606592  0.07349839     0.04400
C728        C  0.46221543  0.00015555  0.09575129    -0.10200
C729        C  0.46438176  0.98834506  0.14432737    -0.00600
C730        C  0.42415576  0.00048183  0.17109960    -0.00800
C731        C  0.38010978  0.99023188  0.15051644    -0.13800
C732        C  0.37553114  0.99541968  0.10121853    -0.00300
C733        C  0.50828839  0.98170540  0.17057103     0.39000
C734        C  0.32799245  0.99265344  0.08257127     0.35600
C735        C  0.37021667  0.95833785  0.99120563     0.35400
C736        C  0.45835052  0.13853011  0.96586392     0.36100
N737        N  0.54019420  0.97792519  0.19666782    -0.44700
N738        N  0.28907959  0.98717579  0.07023901    -0.45100
N739        N  0.47669155  0.17500478  0.96099319    -0.42500
N740        N  0.35153105  0.92245261  0.99801557    -0.43900
H741        H  0.37878968  0.00531882  0.90997458     0.12300
H742        H  0.45197671  0.09043550  0.04669233     0.08700
H743        H  0.49498151  0.00634404  0.07653162     0.09800
H744        H  0.34817789  0.98998917  0.17275575     0.15600
C745        C  0.45692733  0.47933433  0.60401210    -0.02600
C746        C  0.45616288  0.43549595  0.62756859     0.06000
C747        C  0.45659213  0.43399324  0.67760992    -0.08600
C748        C  0.44747770  0.47579867  0.70379865     0.03400
C749        C  0.43661282  0.51804742  0.67898284    -0.15800
C750        C  0.44515778  0.52063796  0.62975927    -0.09100
C751        C  0.43811877  0.39408143  0.60232490     0.04400
C752        C  0.46987876  0.36365740  0.57719038    -0.10200
C753        C  0.45614312  0.31633065  0.56945016    -0.00600
C754        C  0.41177507  0.30231543  0.58890633    -0.00800
C755        C  0.37573494  0.33759016  0.58780214    -0.13800
C756        C  0.38974011  0.38060423  0.60850973    -0.00300
C757        C  0.49126369  0.28209484  0.55200068     0.39000
C758        C  0.36081430  0.39908449  0.64782585     0.35600
C759        C  0.46685976  0.48188604  0.55347224     0.35400
C760        C  0.44907002  0.47470543  0.75530918     0.36100
N761        N  0.52044186  0.25588632  0.53717818    -0.44700
N762        N  0.33860976  0.41207997  0.68064996    -0.45100
N763        N  0.45126812  0.47413963  0.79654704    -0.42500
N764        N  0.47542006  0.48376021  0.51309839    -0.43900
H765        H  0.44239813  0.55479519  0.61162835     0.12300
H766        H  0.45887153  0.39978496  0.69566371     0.08700
H767        H  0.50623611  0.37449026  0.56968710     0.09800
H768        H  0.33896878  0.32677773  0.59332155     0.15600
C769        C  0.85473876  0.85419578  0.55731556    -0.02600
C770        C  0.84335696  0.88193898  0.51665211     0.06000
C771        C  0.86256146  0.86786022  0.47203158    -0.08600
C772        C  0.88408052  0.82260413  0.46658770     0.03400
C773        C  0.87952035  0.79051689  0.50450901    -0.15800
C774        C  0.88008050  0.81083056  0.55063096    -0.09100
C775        C  0.81436638  0.92647549  0.51931724     0.04400
C776        C  0.82840153  0.96216226  0.55116140    -0.10200
C777        C  0.80878631  0.00805366  0.54855556    -0.00600
C778        C  0.77533404  0.01926946  0.51191870    -0.00800
C779        C  0.75842722  0.98268356  0.48225280    -0.13800
C780        C  0.77703592  0.93598547  0.48647630    -0.00300
C781        C  0.82782918  0.04349887  0.58106634     0.39000
C782        C  0.75775087  0.89837315  0.45682045     0.35600
C783        C  0.83749481  0.86664004  0.60463653     0.35400
C784        C  0.89924501  0.80631902  0.41975875     0.36100
N785        N  0.84303349  0.07152360  0.60741019    -0.44700
N786        N  0.74251183  0.86779142  0.43353343    -0.45100
N787        N  0.91153665  0.79362969  0.38212865    -0.42500
N788        N  0.82375427  0.87643384  0.64260034    -0.43900
H789        H  0.88545045  0.78760026  0.58108698     0.12300
H790        H  0.85910533  0.89121794  0.44145735     0.08700
H791        H  0.85713810  0.95524351  0.57617935     0.09800
H792        H  0.73140441  0.99070476  0.45557202     0.15600
C793        C  0.47597933  0.89209843  0.01601285    -0.02600
C794        C  0.47514285  0.85723568  0.98002619     0.06000
C795        C  0.47262329  0.80865226  0.99188712    -0.08600
C796        C  0.45836179  0.79628776  0.03773926     0.03400
C797        C  0.45081135  0.83265334  0.07232010    -0.15800
C798        C  0.46254054  0.87990861  0.06212628    -0.09100
C799        C  0.45361736  0.87207927  0.93506153     0.04400
C800        C  0.47668316  0.90438301  0.90476026    -0.10200
C801        C  0.45434832  0.91893762  0.86273023    -0.00600
C802        C  0.41179432  0.89661021  0.84955238    -0.00800
C803        C  0.38394035  0.87619650  0.88531087    -0.13800
C804        C  0.40555095  0.86014963  0.92625781    -0.00300
C805        C  0.48007249  0.94715894  0.82872016     0.39000
C806        C  0.37807348  0.82884419  0.95655159     0.35600
C807        C  0.48947890  0.94011910  0.00427243     0.35400
C808        C  0.44909054  0.74676629  0.04802274     0.36100
N809        N  0.50065017  0.96948078  0.80109555    -0.44700
N810        N  0.35606544  0.80372517  0.98043568    -0.45100
N811        N  0.44084081  0.70737159  0.05677079    -0.42500
N812        N  0.50191157  0.97710772  0.99121407    -0.43900
H813        H  0.46205620  0.90639496  0.09037879     0.12300
H814        H  0.47348175  0.78153433  0.96382586     0.08700
H815        H  0.51212826  0.91702955  0.91292918     0.09800
H816        H  0.35106863  0.85874710  0.87649038     0.15600
C817        C  0.49781106  0.56488435  0.40702455    -0.02600
C818        C  0.45984223  0.53354549  0.39756746     0.06000
C819        C  0.41321867  0.55008525  0.40655945    -0.08600
C820        C  0.40272887  0.59875368  0.40605601     0.03400
C821        C  0.44106926  0.62847813  0.39470805    -0.15800
C822        C  0.48636188  0.61390090  0.41198595    -0.09100
C823        C  0.46448719  0.49037131  0.36711901     0.04400
C824        C  0.49479501  0.45299551  0.38130130    -0.10200
C825        C  0.49194240  0.40829594  0.35929380    -0.00600
C826        C  0.45523668  0.39983537  0.32541103    -0.00800
C827        C  0.42869125  0.43824445  0.30757370    -0.13800
C828        C  0.43412977  0.48377468  0.32684253    -0.00300
C829        C  0.52704978  0.37251677  0.37312651     0.39000
C830        C  0.40553511  0.52174891  0.30586516     0.35600
C831        C  0.54728537  0.55024828  0.40210415     0.35400
C832        C  0.35367345  0.61175120  0.39542675     0.36100
N833        N  0.55714374  0.34574731  0.38409019    -0.44700
N834        N  0.38115936  0.55043967  0.28812288    -0.45100
N835        N  0.31468902  0.61945624  0.38346341    -0.42500
N836        N  0.58723257  0.53916691  0.39802166    -0.43900
H837        H  0.51528581  0.63931370  0.41189729     0.12300
H838        H  0.38464442  0.52604037  0.40106271     0.08700
H839        H  0.51916963  0.45793503  0.41094525     0.09800
H840        H  0.40302585  0.43247497  0.27912875     0.15600
C841        C  0.76867449  0.38901149  0.45928477    -0.02600
C842        C  0.76320064  0.41073379  0.50422249     0.06000
C843        C  0.72130167  0.43856164  0.51447532    -0.08600
C844        C  0.68931577  0.45122495  0.47868847     0.03400
C845        C  0.69836330  0.43437406  0.43244396    -0.15800
C846        C  0.73644133  0.40141903  0.42354508    -0.09100
C847        C  0.80143986  0.41024046  0.54029848     0.04400
C848        C  0.81207949  0.45654583  0.55639422    -0.10200
C849        C  0.79344850  0.47094158  0.60078877    -0.00600
C850        C  0.77793511  0.43487475  0.63224652    -0.00800
C851        C  0.79141380  0.38688236  0.62168709    -0.13800
C852        C  0.80019427  0.37381415  0.57426057    -0.00300
C853        C  0.77798741  0.52054901  0.60520780     0.39000
C854        C  0.79747274  0.32407655  0.56020252     0.35600
C855        C  0.80587700  0.35364249  0.44905895     0.35400
C856        C  0.64762973  0.48063027  0.49045133     0.36100
N857        N  0.76522514  0.56028293  0.60614222    -0.44700
N858        N  0.79546476  0.28407546  0.54918211    -0.45100
N859        N  0.61425034  0.50392713  0.50067282    -0.42500
N860        N  0.83493165  0.32465373  0.44021189    -0.43900
H861        H  0.74120516  0.38561767  0.38824818     0.12300
H862        H  0.71463303  0.45235313  0.55020248     0.08700
H863        H  0.81741776  0.48384916  0.52972610     0.09800
H864        H  0.78423399  0.35891765  0.64714605     0.15600
C865        C  0.92206964  0.48767577  0.91188252    -0.02600
C866        C  0.91450681  0.45004070  0.94446450     0.06000
C867        C  0.94999902  0.41432938  0.94865815    -0.08600
C868        C  0.99408554  0.41797815  0.92611506     0.03400
C869        C  0.00364106  0.45843322  0.89755754    -0.15800
C870        C  0.96716648  0.49294374  0.89062112    -0.09100
C871        C  0.86692413  0.44295993  0.96693547     0.04400
C872        C  0.84414886  0.39915473  0.96000874    -0.10200
C873        C  0.79438571  0.39887145  0.95667706    -0.00600
C874        C  0.76987556  0.44346367  0.95086504    -0.00800
C875        C  0.78995415  0.48383726  0.97210390    -0.13800
C876        C  0.83862815  0.48220506  0.98335943    -0.00300
C877        C  0.77073787  0.35340207  0.95253384     0.39000
C878        C  0.85827999  0.51948438  0.01227023     0.35600
C879        C  0.88224840  0.51587488  0.89358992     0.35400
C880        C  0.02776231  0.37826743  0.93206529     0.36100
N881        N  0.75169707  0.31701446  0.94968541    -0.44700
N882        N  0.87181816  0.54802815  0.03878118    -0.45100
N883        N  0.05444444  0.34625528  0.93649817    -0.42500
N884        N  0.84948780  0.53685998  0.87853801    -0.43900
H885        H  0.97256154  0.52176503  0.86559594     0.12300
H886        H  0.94282240  0.38197952  0.96772560     0.08700
H887        H  0.86450406  0.36634968  0.95285980     0.09800
H888        H  0.76964310  0.51731313  0.97515654     0.15600
C889        C  0.41948002  0.75504475  0.56079321    -0.02600
C890        C  0.46131515  0.73545467  0.53975159     0.06000
C891        C  0.45961497  0.68827115  0.52182507    -0.08600
C892        C  0.41513623  0.66691696  0.51483113     0.03400
C893        C  0.37322983  0.69561710  0.51882440    -0.15800
C894        C  0.37527060  0.73772042  0.54645856    -0.09100
C895        C  0.49793968  0.76781932  0.52031801     0.04400
C896        C  0.52460165  0.79867975  0.55015765    -0.10200
C897        C  0.55969698  0.82718820  0.52871735    -0.00600
C898        C  0.57612327  0.81310645  0.48341933    -0.00800
C899        C  0.53886345  0.80251561  0.45208145    -0.13800
C900        C  0.50239406  0.77377357  0.46988419    -0.00300
C901        C  0.58193161  0.86663600  0.55244259     0.39000
C902        C  0.47141376  0.75097707  0.43586264     0.35600
C903        C  0.42147134  0.78499240  0.60286595     0.35400
C904        C  0.41291983  0.61559466  0.51171590     0.36100
N905        N  0.60000419  0.90003081  0.56845881    -0.44700
N906        N  0.44640931  0.73386822  0.40793154    -0.45100
N907        N  0.41135684  0.57422697  0.51159938    -0.42500
N908        N  0.42253734  0.80725921  0.63791286    -0.43900
H909        H  0.34245877  0.75556512  0.55870992     0.12300
H910        H  0.49242060  0.66941755  0.51123817     0.08700
H911        H  0.51745428  0.80144170  0.58806119     0.09800
H912        H  0.54518808  0.80364501  0.41387895     0.15600
C913        C  0.94239405  0.02298852  0.49336006    -0.02600
C914        C  0.96590253  0.98377848  0.51446983     0.06000
C915        C  0.01229656  0.98804986  0.53274109    -0.08600
C916        C  0.03704015  0.02954561  0.52639734     0.03400
C917        C  0.01409384  0.06840261  0.50374759    -0.15800
C918        C  0.96642854  0.06592587  0.48898514    -0.09100
C919        C  0.95215821  0.93500369  0.50422209     0.04400
C920        C  0.96115001  0.92027238  0.45698240    -0.10200
C921        C  0.98404127  0.87644079  0.44774562    -0.00600
C922        C  0.99399391  0.84564548  0.48646138    -0.00800
C923        C  0.97500351  0.85708862  0.53187664    -0.13800
C924        C  0.95496138  0.90181884  0.54129639    -0.00300
C925        C  0.00010086  0.86694291  0.39937957     0.39000
C926        C  0.94705358  0.91586710  0.59058192     0.35600
C927        C  0.89619545  0.01761056  0.47182723     0.35400
C928        C  0.08686867  0.03014165  0.54074612     0.36100
N929        N  0.01254943  0.86016016  0.36038811    -0.44700
N930        N  0.94134523  0.92674413  0.63019319    -0.45100
N931        N  0.12673816  0.03011492  0.55209636    -0.42500
N932        N  0.86003256  0.01174822  0.45290587    -0.43900
H933        H  0.94876745  0.09695617  0.47343520     0.12300
H934        H  0.03123902  0.95714924  0.54740519     0.08700
H935        H  0.95846207  0.94614007  0.42845918     0.09800
H936        H  0.97992023  0.83305629  0.56173379     0.15600
C937        C  0.42906247  0.18686878  0.53345492    -0.02600
C938        C  0.44767731  0.18777230  0.48639275     0.06000
C939        C  0.42587198  0.21800766  0.45288685    -0.08600
C940        C  0.38730021  0.24707112  0.46513702     0.03400
C941        C  0.36332338  0.23889350  0.50855048    -0.15800
C942        C  0.38535434  0.20998436  0.54317792    -0.09100
C943        C  0.48639850  0.15487762  0.46980712     0.04400
C944        C  0.48876177  0.10745489  0.48745451    -0.10200
C945        C  0.52236258  0.07561012  0.46704762    -0.00600
C946        C  0.56308349  0.09750329  0.44877207    -0.00800
C947        C  0.54833157  0.13003130  0.41357276    -0.13800
C948        C  0.51692716  0.16608304  0.43056760    -0.00300
C949        C  0.49905788  0.04568357  0.43194157     0.39000
C950        C  0.52450483  0.21437003  0.41518929     0.35600
C951        C  0.45335226  0.16265066  0.57215028     0.35400
C952        C  0.37036256  0.28059256  0.42962926     0.36100
N953        N  0.48012430  0.02598432  0.40092555    -0.44700
N954        N  0.53083169  0.25350710  0.40420757    -0.45100
N955        N  0.35768985  0.30677843  0.40028299    -0.42500
N956        N  0.47251783  0.14343869  0.60340564    -0.43900
H957        H  0.36799315  0.20441598  0.57731317     0.12300
H958        H  0.43676264  0.21759470  0.41582727     0.08700
H959        H  0.45886121  0.09331907  0.50713741     0.09800
H960        H  0.57007968  0.13504894  0.38241101     0.15600
C961        C  0.03536719  0.39881445  0.04402919    -0.02600
C962        C  0.00330419  0.43897013  0.04724290     0.06000
C963        C  0.01886683  0.48318067  0.02845250    -0.08600
C964        C  0.06811560  0.48923450  0.02020475     0.03400
C965        C  0.09957398  0.45292698  0.03447176    -0.15800
C966        C  0.08257873  0.40623510  0.02945808    -0.09100
C967        C  0.95660041  0.43697127  0.07311686     0.04400
C968        C  0.92516235  0.39911660  0.06467439    -0.10200
C969        C  0.87977620  0.39863441  0.08558194    -0.00600
C970        C  0.86528183  0.43619013  0.11679818    -0.00800
C971        C  0.89799826  0.47200286  0.12854105    -0.13800
C972        C  0.94364239  0.47214462  0.10773895    -0.00300
C973        C  0.84816159  0.36035004  0.07231414     0.39000
C974        C  0.97768116  0.50669178  0.12480976     0.35600
C975        C  0.02421436  0.35196345  0.06186953     0.35400
C976        C  0.08806271  0.53212692  0.00121158     0.36100
N977        N  0.82268733  0.32983436  0.06168087    -0.44700
N978        N  0.00559352  0.53367047  0.13849466    -0.45100
N979        N  0.10776628  0.56429570  0.98510518    -0.42500
N980        N  0.01629012  0.31424811  0.07640888    -0.43900
H981        H  0.10807202  0.37632671  0.03101025     0.12300
H982        H  0.99387585  0.51305134  0.02403716     0.08700
H983        H  0.93539279  0.36961578  0.04148473     0.09800
H984        H  0.88797740  0.49982538  0.15423822     0.15600
C985        C  0.37289154  0.43803375  0.43972092    -0.02600
C986        C  0.35582679  0.46702724  0.47749880     0.06000
C987        C  0.32547202  0.50663319  0.46830674    -0.08600
C988        C  0.29857796  0.50664281  0.42733441     0.03400
C989        C  0.30962930  0.47235568  0.39150540    -0.15800
C990        C  0.34822974  0.43971033  0.39648565    -0.09100
C991        C  0.34306481  0.44475785  0.52236424     0.04400
C992        C  0.34665013  0.47506618  0.56223278    -0.10200
C993        C  0.30973339  0.47730081  0.59514207    -0.00600
C994        C  0.27302208  0.44364131  0.59221797    -0.00800
C995        C  0.27431579  0.40726803  0.55818370    -0.13800
C996        C  0.30743000  0.40877557  0.52150902    -0.00300
C997        C  0.30907831  0.51525061  0.63046804     0.39000
C998        C  0.29508331  0.38133770  0.47949231     0.35600
C999        C  0.40869990  0.40107804  0.44821553     0.35400
C1000       C  0.25508266  0.53611943  0.42698928     0.36100
N1001       N  0.30593612  0.54559192  0.65873504    -0.44700
N1002       N  0.28200554  0.36038379  0.44633083    -0.45100
N1003       N  0.21978877  0.55873616  0.42692014    -0.42500
N1004       N  0.43771750  0.37187585  0.45573558    -0.43900
H1005       H  0.35604065  0.41333518  0.36875971     0.12300
H1006       H  0.31396004  0.53067876  0.49704850     0.08700
H1007       H  0.37188592  0.50392267  0.56195133     0.09800
H1008       H  0.24569445  0.38144352  0.55691651     0.15600
C1009       C  0.97050513  0.96788957  0.27723581    -0.02600
C1010       C  0.94526399  0.97171651  0.32118265     0.06000
C1011       C  0.90829330  0.93964787  0.33037909    -0.08600
C1012       C  0.89671919  0.90403469  0.29737907     0.03400
C1013       C  0.92491637  0.89784187  0.25571079    -0.15800
C1014       C  0.96070984  0.93064570  0.24570418    -0.09100
C1015       C  0.95029109  0.01379655  0.35316900     0.04400
C1016       C  0.90855735  0.04009802  0.36633619    -0.10200
C1017       C  0.91313645  0.08737815  0.38175945    -0.00600
C1018       C  0.95339713  0.11096528  0.36605476    -0.00800
C1019       C  0.99665431  0.08433389  0.36809360    -0.13800
C1020       C  0.99516296  0.03437083  0.36321630    -0.00300
C1021       C  0.87427503  0.11504168  0.40199709     0.39000
C1022       C  0.03919372  0.00625964  0.36501697     0.35600
C1023       C  0.00558559  0.00197747  0.26208783     0.35400
C1024       C  0.85585072  0.87489236  0.30767997     0.36100
N1025       N  0.84608638  0.13986392  0.42032281    -0.44700
N1026       N  0.07475585  0.98423534  0.36722686    -0.45100
N1027       N  0.82231293  0.85278139  0.31629201    -0.42500
N1028       N  0.03401962  0.02865269  0.24932621    -0.43900
H1029       H  0.98203386  0.92634932  0.21337426     0.12300
H1030       H  0.88763610  0.94300302  0.36316326     0.08700
H1031       H  0.87317741  0.02527171  0.36265695     0.09800
H1032       H  0.03047199  0.10183387  0.36408943     0.15600
C1033       C  0.00961367  0.53386895  0.45454823    -0.02600
C1034       C  0.99069926  0.56198476  0.49172606     0.06000
C1035       C  0.96985512  0.60691341  0.48138252    -0.08600
C1036       C  0.95240011  0.61497179  0.43568138     0.03400
C1037       C  0.95999409  0.57946196  0.40027787    -0.15800
C1038       C  0.99247981  0.54137872  0.40877867    -0.09100
C1039       C  0.96965931  0.53699862  0.53201156     0.04400
C1040       C  0.99867920  0.51377193  0.56573017    -0.10200
C1041       C  0.97842007  0.50031445  0.60902319    -0.00600
C1042       C  0.93161107  0.51733914  0.62010563    -0.00800
C1043       C  0.90078606  0.52943829  0.58298840    -0.13800
C1044       C  0.91922636  0.53821106  0.53832759    -0.00300
C1045       C  0.00817105  0.47822380  0.64510334     0.39000
C1046       C  0.88570643  0.55085508  0.50094107     0.35600
C1047       C  0.04905332  0.50087778  0.46258520     0.35400
C1048       C  0.92529988  0.65844300  0.42627993     0.36100
N1049       N  0.03142256  0.46026156  0.67432608    -0.44700
N1050       N  0.85837516  0.56068158  0.47141681    -0.45100
N1051       N  0.90321128  0.69284177  0.41793220    -0.42500
N1052       N  0.08219322  0.47619930  0.46918271    -0.43900
H1053       H  0.00557909  0.51887644  0.37952493     0.12300
H1054       H  0.95860849  0.63083807  0.51029059     0.08700
H1055       H  0.03692282  0.50914653  0.55987709     0.09800
H1056       H  0.86444036  0.54094065  0.59025032     0.15600
C1057       C  0.93520490  0.33350053  0.50134956    -0.02600
C1058       C  0.93102291  0.38417301  0.50143591     0.06000
C1059       C  0.92024466  0.40886726  0.54363916    -0.08600
C1060       C  0.91355537  0.38430258  0.58593605     0.03400
C1061       C  0.91640644  0.33411640  0.58540575    -0.15800
C1062       C  0.92786959  0.30880855  0.54361039    -0.09100
C1063       C  0.93438776  0.41128739  0.45703656     0.04400
C1064       C  0.89172108  0.42849337  0.43615797    -0.10200
C1065       C  0.88823490  0.42888130  0.38634142    -0.00600
C1066       C  0.92869833  0.41438421  0.35950196    -0.00800
C1067       C  0.97386280  0.41904370  0.38131831    -0.13800
C1068       C  0.97688581  0.41010522  0.42995995    -0.00300
C1069       C  0.84250000  0.43744927  0.36377532     0.39000
C1070       C  0.02115529  0.39008988  0.44863471     0.35600
C1071       C  0.94615235  0.30597930  0.45854863     0.35400
C1072       C  0.90252156  0.41032370  0.62963901     0.36100
N1073       N  0.80613089  0.44450141  0.34505883    -0.44700
N1074       N  0.05616993  0.37269821  0.46313508    -0.45100
N1075       N  0.89300716  0.42952438  0.66535534    -0.42500
N1076       N  0.95514331  0.28363669  0.42452469    -0.43900
H1077       H  0.93131151  0.26999631  0.54415409     0.12300
H1078       H  0.91618920  0.44700083  0.54293923     0.08700
H1079       H  0.85992738  0.43430489  0.45781203     0.09800
H1080       H  0.00635766  0.41473359  0.36016085     0.15600
C1081       C  0.86158745  0.98757262  0.91904163    -0.02600
C1082       C  0.89934244  0.95349844  0.92647166     0.06000
C1083       C  0.94130027  0.95766589  0.89819572    -0.08600
C1084       C  0.94704597  0.99493633  0.86606703     0.03400
C1085       C  0.90895841  0.02772057  0.85856982    -0.15800
C1086       C  0.86644751  0.02313026  0.88488185    -0.09100
C1087       C  0.89306265  0.90951517  0.95673832     0.04400
C1088       C  0.85148768  0.88527801  0.94484592    -0.10200
C1089       C  0.85483570  0.85218238  0.90743722    -0.00600
C1090       C  0.90124541  0.83524322  0.89260168    -0.00800
C1091       C  0.93983986  0.84365576  0.92376172    -0.13800
C1092       C  0.93315471  0.87818580  0.96023552    -0.00300
C1093       C  0.81095469  0.83807549  0.88481717     0.39000
C1094       C  0.96814313  0.88466068  0.99711872     0.35600
C1095       C  0.81724496  0.98827579  0.94572943     0.35400
C1096       C  0.99201811  0.99750819  0.84053864     0.36100
N1097       N  0.77684546  0.82460646  0.86606466    -0.44700
N1098       N  0.99513084  0.88921441  0.02800843    -0.45100
N1099       N  0.02823438  0.99965911  0.82046483    -0.42500
N1100       N  0.78141555  0.99047807  0.96665941    -0.43900
H1101       H  0.83704789  0.04874275  0.88010841     0.12300
H1102       H  0.97046671  0.93159975  0.90047426     0.08700
H1103       H  0.81676363  0.89887012  0.95586809     0.09800
H1104       H  0.97410289  0.82511431  0.91911261     0.15600
C1105       C  0.33799573  0.99403248  0.56127580    -0.02600
C1106       C  0.35766939  0.94993924  0.57763929     0.06000
C1107       C  0.33405415  0.90725024  0.56559994    -0.08600
C1108       C  0.28949307  0.90973691  0.54346370     0.03400
C1109       C  0.26423238  0.95370413  0.54730700    -0.15800
C1110       C  0.29148662  0.99498511  0.54279266    -0.09100
C1111       C  0.40097776  0.94747808  0.60792559     0.04400
C1112       C  0.40740522  0.98082385  0.64534441    -0.10200
C1113       C  0.45082695  0.98162120  0.67038348    -0.00600
C1114       C  0.48610787  0.94586467  0.66112474    -0.00800
C1115       C  0.47626425  0.90922672  0.62871149    -0.13800
C1116       C  0.43634466  0.91175312  0.60026474    -0.00300
C1117       C  0.45883005  0.01988393  0.70383856     0.39000
C1118       C  0.43814797  0.88186255  0.55887753     0.35600
C1119       C  0.36382108  0.03820890  0.56363126     0.35400
C1120       C  0.26514152  0.86595606  0.53145176     0.36100
N1121       N  0.46551129  0.05082315  0.73049468    -0.44700
N1122       N  0.44315550  0.85686597  0.52635099    -0.45100
N1123       N  0.24554194  0.83098288  0.52192648    -0.42500
N1124       N  0.38433617  0.07377126  0.56512076    -0.43900
H1125       H  0.27372351  0.02923929  0.53616628     0.12300
H1126       H  0.34862892  0.87241275  0.57527155     0.08700
H1127       H  0.37972512  0.00758358  0.65342734     0.09800
H1128       H  0.50288541  0.88144156  0.62057655     0.15600
C1129       C  0.26670825  0.91797513  0.90953537    -0.02600
C1130       C  0.26039520  0.96759471  0.92110802     0.06000
C1131       C  0.28432095  0.00035193  0.89107966    -0.08600
C1132       C  0.30229644  0.98294952  0.84696946     0.03400
C1133       C  0.28238374  0.94139059  0.82894078    -0.15800
C1134       C  0.27742953  0.90506627  0.86240358    -0.09100
C1135       C  0.22414164  0.98231912  0.95859406     0.04400
C1136       C  0.18412130  0.95267008  0.96450304    -0.10200
C1137       C  0.15928719  0.95161037  0.00772372    -0.00600
C1138       C  0.16984489  0.98521369  0.04352414    -0.00800
C1139       C  0.20009264  0.02336650  0.03203647    -0.13800
C1140       C  0.22868334  0.02143848  0.99061601    -0.00300
C1141       C  0.12566452  0.91384477  0.01529393     0.39000
C1142       C  0.26494358  0.05719818  0.98548653     0.35600
C1143       C  0.25848066  0.88029507  0.94348710     0.35400
C1144       C  0.33608821  0.00700070  0.81741855     0.36100
N1145       N  0.09947346  0.88286966  0.02131530    -0.44700
N1146       N  0.29366316  0.08634958  0.98208198    -0.45100
N1147       N  0.36478013  0.02167453  0.79183502    -0.42500
N1148       N  0.25166542  0.85021317  0.97068110    -0.43900
H1149       H  0.27213624  0.86841770  0.85054732     0.12300
H1150       H  0.28751439  0.03788840  0.89965260     0.08700
H1151       H  0.17540789  0.92645934  0.93719499     0.09800
H1152       H  0.20645612  0.05141404  0.05821833     0.15600
C1153       C  0.36853928  0.90194562  0.45632268    -0.02600
C1154       C  0.40322553  0.93780101  0.46273137     0.06000
C1155       C  0.38843580  0.98620850  0.46046222    -0.08600
C1156       C  0.34340473  0.99873242  0.44219050     0.03400
C1157       C  0.31199084  0.96185421  0.42917587    -0.15800
C1158       C  0.32294676  0.91491509  0.44262017    -0.09100
C1159       C  0.45406497  0.92716977  0.45218680     0.04400
C1160       C  0.46252722  0.90455110  0.40804195    -0.10200
C1161       C  0.50625664  0.90776371  0.38564674    -0.00600
C1162       C  0.54318657  0.93290511  0.40832565    -0.00800
C1163       C  0.53787254  0.94906267  0.45532551    -0.13800
C1164       C  0.49275886  0.94808926  0.47713898    -0.00300
C1165       C  0.51058773  0.88836670  0.33762731     0.39000
C1166       C  0.48635281  0.97587324  0.52048212     0.35600
C1167       C  0.37877015  0.85106565  0.45472185     0.35400
C1168       C  0.33199210  0.04893294  0.43544916     0.36100
N1169       N  0.51382978  0.87262614  0.29934528    -0.44700
N1170       N  0.48301025  0.00009629  0.55414636    -0.45100
N1171       N  0.32335226  0.08937927  0.43072794    -0.42500
N1172       N  0.38420302  0.80990696  0.45293607    -0.43900
H1173       H  0.29759272  0.88651260  0.43644810     0.12300
H1174       H  0.41368455  0.01432560  0.46721108     0.08700
H1175       H  0.43333363  0.88917454  0.38795487     0.09800
H1176       H  0.56731308  0.96695859  0.47280744     0.15600
C1177       C  0.67505709  0.87576748  0.99747022    -0.02600
C1178       C  0.62546571  0.86999164  0.99068379     0.06000
C1179       C  0.60663655  0.87392750  0.94510930    -0.08600
C1180       C  0.63089102  0.90097124  0.91195978     0.03400
C1181       C  0.67685910  0.91866146  0.92352871    -0.15800
C1182       C  0.70031910  0.90174765  0.96408362    -0.09100
C1183       C  0.59602877  0.89440812  0.02633410     0.04400
C1184       C  0.59719896  0.94491874  0.02670690    -0.10200
C1185       C  0.58979017  0.96975495  0.06916408    -0.00600
C1186       C  0.58689097  0.94246815  0.11064201    -0.00800
C1187       C  0.56861488  0.89592910  0.10715088    -0.13800
C1188       C  0.57749284  0.87012917  0.06526881    -0.00300
C1189       C  0.59487453  0.02121817  0.07063148     0.39000
C1190       C  0.57212198  0.81901639  0.06385432     0.35600
C1191       C  0.69758970  0.86540440  0.04258147     0.35400
C1192       C  0.60858850  0.90875590  0.86609185     0.36100
N1193       N  0.59849250  0.06248133  0.07192266    -0.44700
N1194       N  0.56697232  0.77808540  0.06151767    -0.45100
N1195       N  0.59131474  0.91394119  0.82895994    -0.42500
N1196       N  0.71633605  0.85769587  0.07854280    -0.43900
H1197       H  0.73753884  0.90951981  0.97016107     0.12300
H1198       H  0.56995973  0.86386280  0.93862913     0.08700
H1199       H  0.60862242  0.96418064  0.99534956     0.09800
H1200       H  0.56032230  0.87646042  0.13935379     0.15600
C1201       C  0.46332067  0.54142974  0.05025609    -0.02600
C1202       C  0.45996844  0.51409221  0.00702578     0.06000
C1203       C  0.44559300  0.53894483  0.96561089    -0.08600
C1204       C  0.44943158  0.58869125  0.96374984     0.03400
C1205       C  0.46803876  0.61227628  0.00371018    -0.15800
C1206       C  0.46048564  0.59122118  0.04803896    -0.09100
C1207       C  0.47861929  0.46340137  0.00272919     0.04400
C1208       C  0.47467093  0.43286902  0.04197857    -0.10200
C1209       C  0.50132178  0.39026809  0.04482159    -0.00600
C1210       C  0.52630845  0.37268189  0.00421977    -0.00800
C1211       C  0.52700144  0.40080719  0.96303247    -0.13800
C1212       C  0.50594570  0.44661373  0.96265848    -0.00300
C1213       C  0.50449248  0.36773820  0.09093392     0.39000
C1214       C  0.51716812  0.47602246  0.92207737     0.35600
C1215       C  0.47909761  0.52228073  0.09543777     0.35400
C1216       C  0.44177245  0.61340167  0.91931242     0.36100
N1217       N  0.50824775  0.35066048  0.12825668    -0.44700
N1218       N  0.52644608  0.49928213  0.88946126    -0.45100
N1219       N  0.43544059  0.63347263  0.88385026    -0.42500
N1220       N  0.49213473  0.50772365  0.13181532    -0.43900
H1221       H  0.46772100  0.61178723  0.08023990     0.12300
H1222       H  0.43743647  0.51981660  0.93308166     0.08700
H1223       H  0.45185496  0.44276207  0.07184786     0.09800
H1224       H  0.54706867  0.38845101  0.93185433     0.15600
C1225       C  0.99586416  0.02223928  0.07132932    -0.02600
C1226       C  0.97755677  0.00470572  0.02783086     0.06000
C1227       C  0.01176141  0.99649485  0.99149529    -0.08600
C1228       C  0.04967964  0.02812153  0.98764816     0.03400
C1229       C  0.05651847  0.06126708  0.02500614    -0.15800
C1230       C  0.03473980  0.05277157  0.06936240    -0.09100
C1231       C  0.93188420  0.02851696  0.01203829     0.04400
C1232       C  0.93431101  0.06536802  0.97762170    -0.10200
C1233       C  0.89537919  0.09639224  0.96903733    -0.00600
C1234       C  0.85333120  0.09183223  0.99598591    -0.00800
C1235       C  0.84997502  0.05428501  0.02890447    -0.13800
C1236       C  0.88805442  0.02175718  0.03583202    -0.00300
C1237       C  0.90043170  0.13391357  0.93430423     0.39000
C1238       C  0.88078932  0.98155031  0.06684529     0.35600
C1239       C  0.97066295  0.01753275  0.11599371     0.35400
C1240       C  0.07626665  0.03018977  0.94348564     0.36100
N1241       N  0.90457212  0.16369468  0.90620634    -0.44700
N1242       N  0.87439917  0.94942120  0.09172614    -0.45100
N1243       N  0.09750582  0.03256050  0.90809206    -0.42500
N1244       N  0.95116668  0.01370634  0.15224460    -0.43900
H1245       H  0.04356306  0.07399756  0.10064641     0.12300
H1246       H  0.00285153  0.97530974  0.96084243     0.08700
H1247       H  0.96732192  0.07158999  0.95844981     0.09800
H1248       H  0.81698623  0.04995129  0.04890445     0.15600
C1249       C  0.37008318  0.36740536  0.93995028    -0.02600
C1250       C  0.36579559  0.39691280  0.98152004     0.06000
C1251       C  0.38206199  0.37810945  0.02530401    -0.08600
C1252       C  0.39321545  0.32928641  0.02895136     0.03400
C1253       C  0.38051402  0.29972849  0.99069544    -0.15800
C1254       C  0.38447449  0.31947475  0.94509891    -0.09100
C1255       C  0.34347802  0.44570666  0.98095544     0.04400
C1256       C  0.35398110  0.47655382  0.94341502    -0.10200
C1257       C  0.33420583  0.52267130  0.94182099    -0.00600
C1258       C  0.30805266  0.54086601  0.98150659    -0.00800
C1259       C  0.29644581  0.51002236  0.01872745    -0.13800
C1260       C  0.31150714  0.46202330  0.01731708    -0.00300
C1261       C  0.34141513  0.54979786  0.89877973     0.39000
C1262       C  0.29015225  0.42975488  0.05096414     0.35600
C1263       C  0.35245409  0.38178494  0.89366559     0.35400
C1264       C  0.40614648  0.30878112  0.07430483     0.36100
N1265       N  0.34622691  0.57069681  0.86366377    -0.44700
N1266       N  0.27214853  0.40396305  0.07735179    -0.45100
N1267       N  0.41669660  0.29155002  0.11028398    -0.42500
N1268       N  0.33810424  0.39304018  0.85661267    -0.43900
H1269       H  0.38286530  0.29585868  0.91413080     0.12300
H1270       H  0.38288590  0.40050672  0.05704480     0.08700
H1271       H  0.37827372  0.46511179  0.91514727     0.09800
H1272       H  0.27333346  0.52275041  0.04762075     0.15600
C1273       C  0.89980324  0.68513649  0.94884602    -0.02600
C1274       C  0.91468644  0.67211725  0.99604451     0.06000
C1275       C  0.91808778  0.71039368  0.02985889    -0.08600
C1276       C  0.89721370  0.75523548  0.02072639     0.03400
C1277       C  0.86993110  0.76029655  0.97935675    -0.15800
C1278       C  0.88342104  0.73167319  0.94036017    -0.09100
C1279       C  0.93217593  0.62214873  0.00918766     0.04400
C1280       C  0.95525687  0.59709285  0.97210203    -0.10200
C1281       C  0.00228990  0.61042180  0.96374932    -0.00600
C1282       C  0.02720254  0.63102773  0.00272758    -0.00800
C1283       C  0.00738025  0.62547778  0.04884328    -0.13800
C1284       C  0.95804561  0.61810022  0.05216475    -0.00300
C1285       C  0.01789898  0.61207094  0.91490201     0.39000
C1286       C  0.93443705  0.62118059  0.09802310     0.35600
C1287       C  0.89715797  0.65312756  0.90820814     0.35400
C1288       C  0.89494184  0.79152192  0.05778929     0.36100
N1289       N  0.02721679  0.61491509  0.87487130    -0.44700
N1290       N  0.91590666  0.62430795  0.13496976    -0.45100
N1291       N  0.89290805  0.82072141  0.08740729    -0.42500
N1292       N  0.89460498  0.62964923  0.87406592    -0.43900
H1293       H  0.86843932  0.73964220  0.90555074     0.12300
H1294       H  0.93513151  0.70584841  0.06409261     0.08700
H1295       H  0.93472998  0.58081419  0.94410533     0.09800
H1296       H  0.02740793  0.63409415  0.08079354     0.15600
loop_ 
_geom_bond_atom_site_label_1 
_geom_bond_atom_site_label_2 
_geom_bond_distance 
_geom_bond_site_symmetry_2 
_ccdc_geom_bond_type 
C1            N2   1.327   1_556  A
C1            N6   1.332       .  A
C1         C1282   1.464   1_556  S
N2            C3   1.352       .  A
C3            N4   1.368   1_554  A
C3          C168   1.464       .  S
N4            C5   1.374       .  A
C5            N6   1.357       .  A
C5          C312   1.454       .  S
C7            N8   1.345       .  A
C7           N12   1.353   1_556  A
C7         C1258   1.466       .  S
N8            C9   1.344       .  A
C9           N10   1.402       .  A
C9          C314   1.533       .  S
N10          C11   1.404   1_556  A
C11          N12   1.355       .  A
C11         C171   1.538       .  S
C13          N14   1.360       .  A
C13          N18   1.346   1_556  A
C13        C1234   1.468       .  S
N14          C15   1.363       .  A
C15          N16   1.370       .  A
C15         C624   1.480       .  S
N16          C17   1.368   1_556  A
C17          N18   1.344       .  A
C17         C546   1.462       .  S
C19          N20   1.353   1_554  A
C19          N24   1.353       .  A
C19        C1210   1.477       .  S
N20          C21   1.350       .  A
C21          N22   1.397   1_556  A
C21         C626   1.524       .  S
N22          C23   1.396       .  A
C23          N24   1.351       .  A
C23         C549   1.531       .  S
C25          N26   1.333       .  A
C25          N30   1.329       .  A
C25        C1186   1.461       .  S
N26          C27   1.355       .  A
C27          N28   1.383       .  A
C27         C548   1.465   1_565  S
N28          C29   1.375       .  A
C29          N30   1.344       .  A
C29         C390   1.477       .  S
C31          N32   1.335       .  A
C31          N36   1.363       .  A
C31        C1162   1.441       .  S
N32          C33   1.328       .  A
C33          N34   1.402       .  A
C33         C392   1.520       .  S
N34          C35   1.407       .  A
C35          N36   1.362       .  A
C35         C579   1.553   1_565  S
C37          N38   1.332       .  A
C37          N42   1.348       .  A
C37        C1133   1.472       .  S
N38          C39   1.347       .  A
C39          N40   1.366       .  A
C39         C315   1.442       .  S
N40          C41   1.368       .  A
C41          N42   1.355       .  A
C41         C234   1.455   1_565  S
C43          N44   1.356       .  A
C43          N48   1.351       .  A
C43        C1109   1.472       .  S
N44          C45   1.349       .  A
C45          N46   1.400       .  A
C45         C237   1.522   1_565  S
N46          C47   1.397       .  A
C47          N48   1.336       .  A
C47         C346   1.521       .  S
C49          N50   1.349   1_556  A
C49          N54   1.348       .  A
C49        C1277   1.468       .  S
N50          C51   1.347       .  A
C51          N52   1.372   1_554  A
C51         C425   1.457       .  S
N52          C53   1.367       .  A
C53          N54   1.345       .  A
C53         C480   1.469       .  S
C55          N56   1.357       .  A
C55          N60   1.357   1_556  A
C55        C1205   1.480   1_556  S
N56          C57   1.354       .  A
C57          N58   1.399       .  A
C57         C483   1.527       .  S
N58          C59   1.396   1_556  A
C59          N60   1.346       .  A
C59         C422   1.530       .  S
C61          N62   1.339       .  A
C61          N66   1.355   1_554  A
C61        C1229   1.465       .  S
N62          C63   1.343       .  A
C63          N64   1.370       .  A
C63         C678   1.455       .  S
N64          C65   1.374   1_554  A
C65          N66   1.359       .  A
C65         C270   1.471       .  S
C67          N68   1.360   1_556  A
C67          N72   1.353       .  A
C67        C1253   1.479       .  S
N68          C69   1.352       .  A
C69          N70   1.400       .  A
C69         C680   1.527       .  S
N70          C71   1.396   1_554  A
C71          N72   1.342       .  A
C71         C266   1.524       .  S
C73          N74   1.353       .  A
C73          N78   1.329       .  A
C73        C1181   1.437       .  S
N74          C75   1.358       .  A
C75          N76   1.375       .  A
C75         C627   1.472   1_565  S
N76          C77   1.368       .  A
C77          N78   1.332       .  A
C77         C482   1.463       .  S
C79          N80   1.347       .  A
C79          N84   1.342       .  A
C79        C1114   1.466       .  S
N80          C81   1.358       .  A
C81          N82   1.398       .  A
C81         C658   1.518   1_565  S
N82          C83   1.394       .  A
C83          N84   1.341       .  A
C83         C513   1.518       .  S
C85          N86   1.359       .  A
C85          N90   1.344   1_565  A
C85        C1138   1.483       .  S
N86          C87   1.364       .  A
C87          N88   1.376       .  A
C87         C170   1.491       .  S
N88          C89   1.372   1_565  A
C89          N90   1.351       .  A
C89         C681   1.476       .  S
C91          N92   1.353       .  A
C91          N96   1.348   1_565  A
C91        C1157   1.466       .  S
N92          C93   1.337       .  A
C93          N94   1.395       .  A
C93         C201   1.533       .  S
N94          C95   1.402   1_565  A
C95          N96   1.352       .  A
C95         C712   1.518       .  S
C97          N98   1.354       .  A
C97         N102   1.349       .  A
C97        C1085   1.474       .  S
N98          C99   1.356       .  A
C99         N100   1.367       .  A
C99         C236   1.464   1_655  S
N100        C101   1.365       .  A
C101        N102   1.347       .  A
C101        C659   1.458       .  S
C103        N104   1.342       .  A
C103        N108   1.351       .  A
C103       C1061   1.440       .  S
N104        C105   1.343       .  A
C105        N106   1.402       .  A
C105        C267   1.533   1_655  S
N106        C107   1.406       .  A
C107        N108   1.352       .  A
C107        C656   1.537       .  S
C109        N110   1.340       .  A
C109        N114   1.355       .  A
C109       C1090   1.478       .  S
N110        C111   1.337       .  A
C111        N112   1.362       .  A
C111        C516   1.454       .  S
N112        C113   1.370       .  A
C113        N114   1.365       .  A
C113        C347   1.460   1_655  S
C115        N116   1.344       .  A
C115        N120   1.357       .  A
C115       C1042   1.451       .  S
N116        C117   1.333       .  A
C117        N118   1.391       .  A
C117        C344   1.506   1_655  S
N118        C119   1.395       .  A
C119        N120   1.352       .  A
C119        C512   1.515       .  S
C121        N122   1.339       .  A
C121        N126   1.342       .  A
C121       C1013   1.463       .  S
N122        C123   1.346       .  A
C123        N124   1.373       .  A
C123        C204   1.462   1_655  S
N124        C125   1.371       .  A
C125        N126   1.358       .  A
C125        C393   1.471       .  S
C127        N128   1.330       .  A
C127        N132   1.357       .  A
C127       C1037   1.435       .  S
N128        C129   1.326       .  A
C129        N130   1.400       .  A
C129        C200   1.514   1_655  S
N130        C131   1.405       .  A
C131        N132   1.360       .  A
C131        C424   1.539       .  S
C133        N134   1.352       .  A
C133        N138   1.334       .  A
C133       C1018   1.476       .  S
N134        C135   1.354       .  A
C135        N136   1.368       .  A
C135        C582   1.466       .  S
N136        C137   1.368       .  A
C137        N138   1.351       .  A
C137        C713   1.443   1_655  S
C139        N140   1.366       .  A
C139        N144   1.350       .  A
C139       C1066   1.484       .  S
N140        C141   1.365       .  A
C141        N142   1.397       .  A
C141        C578   1.535       .  S
N142        C143   1.391       .  A
C143        N144   1.337       .  A
C143        C710   1.517   1_655  S
C145        N146   1.344       .  A
C145        N150   1.339       .  A
C145        C989   1.428       .  S
N146        C147   1.348       .  A
C147        N148   1.374       .  A
C147        C715   1.449       .  S
N148        C149   1.370       .  A
C149        N150   1.338       .  A
C149        C206   1.454       .  S
C151        N152   1.348       .  A
C151        N156   1.367       .  A
C151        C965   1.484       .  S
N152        C153   1.332       .  A
C153        N154   1.392       .  A
C153        C714   1.512       .  S
N154        C155   1.397       .  A
C155        N156   1.366       .  A
C155        C203   1.533       .  S
O157       Zr193   2.379       .  S
O157        C168   1.284       .  A
O158       Zr192   2.476       .  S
O158        C169   1.296       .  A
O159       Zr165   2.471       .  S
O159        C170   1.301       .  A
O160       Zr165   2.479       .  S
O160        C171   1.295       .  A
O161       Zr195   2.567       .  S
O161        C171   1.320       .  A
O162       Zr194   2.479       .  S
O162        C170   1.300       .  A
O163       Zr165   2.578       .  S
O163        C169   1.323       .  A
O164       Zr165   2.459       .  S
O164        C168   1.290       .  A
Zr165       O166   2.322       .  S
Zr165       O167   2.383       .  S
Zr165       O175   2.383       .  S
Zr165       O173   2.363       .  S
O166       Zr192   2.381       .  S
O166       Zr195   2.345       .  S
O167       Zr193   2.369       .  S
O167       Zr194   2.373       .  S
C169        C375   1.546       .  S
H172        O173   0.963       .  S
O173       Zr192   2.330       .  S
O173       Zr194   2.377       .  S
H174        O175   0.961       .  S
O175       Zr193   2.328       .  S
O175       Zr195   2.318       .  S
O176       Zr192   2.513       .  S
O176        C199   1.308       .  A
O177       Zr193   2.407       .  S
O177        C200   1.279       .  A
O178       Zr194   2.454       .  S
O178        C201   1.290       .  A
O179       Zr195   2.477       .  S
O179        C202   1.298       .  A
O180       Zr195   2.456       .  S
O180        C203   1.293       .  A
O181       Zr194   2.456       .  S
O181        C204   1.300       .  A
O182       Zr196   2.426       .  S
O182        C205   1.287       .  A
O183       Zr196   2.456       .  S
O183        C206   1.295       .  A
O184       Zr194   2.606       .  S
O184        C205   1.330       .  A
O185       Zr195   2.437       .  S
O185        C206   1.292       .  A
O186       Zr192   2.585       .  S
O186        C201   1.324       .  A
O187       Zr193   2.419       .  S
O187        C204   1.285       .  A
O188       Zr193   2.570       .  S
O188        C203   1.318       .  A
O189       Zr192   2.402       .  S
O189        C202   1.287       .  A
O190       Zr196   2.467       .  S
O190        C199   1.297       .  A
O191       Zr196   2.584       .  S
O191        C200   1.326       .  A
Zr192       O198   2.333       .  S
Zr192       O210   2.393       .  S
Zr193       O197   2.306       .  S
Zr193       O208   2.364       .  S
Zr194       O198   2.326       .  S
Zr194       O208   2.343       .  S
Zr195       O197   2.370       .  S
Zr195       O210   2.397       .  S
Zr196       O197   2.329       .  S
Zr196       O198   2.381       .  S
Zr196       O210   2.387       .  S
Zr196       O208   2.322       .  S
C199        C279   1.509       .  S
C202        C369   1.458       .  S
C205        C285   1.533       .  S
H207        O208   0.963       .  S
H209        O210   0.966       .  S
C211        N212   1.337       .  A
C211        N216   1.346       .  A
C211        C941   1.456       .  S
N212        C213   1.335       .  A
C213        N214   1.374       .  A
C213        C709   1.470       .  S
N214        C215   1.380       .  A
C215        N216   1.354       .  A
C215        C268   1.470       .  S
C217        N218   1.339       .  A
C217        N222   1.352       .  A
C217        C917   1.430       .  S
N218        C219   1.332       .  A
C219        N220   1.411       .  A
C219        C235   1.540       .  S
N220        C221   1.413       .  A
C221        N222   1.353       .  A
C221        C716   1.555       .  S
O223       Zr259   2.447       .  S
O223        C234   1.298       .  A
O224       Zr258   2.417       .  S
O224        C235   1.282       .  A
O225       Zr231   2.454       .  S
O225        C236   1.296       .  A
O226       Zr231   2.431       .  S
O226        C237   1.287       .  A
O227       Zr261   2.591       .  S
O227        C237   1.324       .  A
O228       Zr260   2.457       .  S
O228        C236   1.295       .  A
O229       Zr231   2.627       .  S
O229        C235   1.335       .  A
O230       Zr231   2.440       .  S
O230        C234   1.291       .  A
Zr231       O232   2.305       .  S
Zr231       O233   2.383       .  S
Zr231       O241   2.380       .  S
Zr231       O239   2.313       .  S
O232       Zr258   2.371       .  S
O232       Zr261   2.349       .  S
O233       Zr259   2.365       .  S
O233       Zr260   2.367       .  S
H238        O239   0.961       .  S
O239       Zr258   2.324       .  S
O239       Zr260   2.386       .  S
H240        O241   0.963       .  S
O241       Zr259   2.342       .  S
O241       Zr261   2.292       .  S
O242       Zr258   2.420       .  S
O242        C265   1.288       .  A
O243       Zr259   2.445       .  S
O243        C266   1.289       .  A
O244       Zr260   2.478       .  S
O244        C267   1.294       .  A
O245       Zr261   2.464       .  S
O245        C268   1.300       .  A
O246       Zr261   2.510       .  S
O246        C269   1.302       .  A
O247       Zr260   2.503       .  S
O247        C270   1.304       .  A
O248       Zr262   2.454       .  S
O248        C271   1.291       .  A
O249       Zr262   2.519       .  S
O249        C272   1.307       .  A
O250       Zr260   2.570       .  S
O250        C271   1.323       .  A
O251       Zr261   2.393       .  S
O251        C272   1.285       .  A
O252       Zr258   2.564       .  S
O252        C267   1.321       .  A
O253       Zr259   2.408       .  S
O253        C270   1.286       .  A
O254       Zr259   2.557       .  S
O254        C269   1.317       .  A
O255       Zr258   2.443       .  S
O255        C268   1.291       .  A
O256       Zr262   2.434       .  S
O256        C265   1.291       .  A
O257       Zr262   2.582       .  S
O257        C266   1.323       .  A
Zr258       O264   2.331       .  S
Zr258       O276   2.387       .  S
Zr259       O263   2.313       .  S
Zr259       O274   2.364       .  S
Zr260       O264   2.331       .  S
Zr260       O274   2.358       .  S
Zr261       O263   2.368       .  S
Zr261       O276   2.391       .  S
Zr262       O263   2.337       .  S
Zr262       O264   2.385       .  S
Zr262       O276   2.380       .  S
Zr262       O274   2.343       .  S
C265        C291   1.437       .  S
C269        C599   1.556       .  S
C271        C297   1.526       .  S
C272        C591   1.474       .  S
H273        O274   0.964       .  S
H275        O276   0.966       .  S
C277        N278   1.362       .  A
C277        N282   1.337       .  A
C277        C893   1.465       .  S
N278        C279   1.368       .  A
C279        N280   1.380       .  A
N280        C281   1.375       .  A
C281        N282   1.346       .  A
C281        C343   1.476       .  S
C283        N284   1.351       .  A
C283        N288   1.349       .  A
C283        C922   1.463   1_455  S
N284        C285   1.350       .  A
C285        N286   1.406       .  A
N286        C287   1.401       .  A
C287        N288   1.336       .  A
C287        C350   1.536       .  S
C289        N290   1.338       .  A
C289        N294   1.338       .  A
C289        C994   1.431       .  S
N290        C291   1.343       .  A
C291        N292   1.365       .  A
N292        C293   1.367       .  A
C293        N294   1.339       .  A
C293        C349   1.437       .  S
C295        N296   1.342       .  A
C295        N300   1.359       .  A
C295        C869   1.474       .  S
N296        C297   1.336       .  A
C297        N298   1.397       .  A
N298        C299   1.402       .  A
C299        N300   1.365       .  A
C299        C348   1.538       .  S
O301       Zr337   2.403       .  S
O301        C312   1.289       .  A
O302       Zr336   2.408       .  S
O302        C313   1.282       .  A
O303       Zr309   2.458       .  S
O303        C314   1.290       .  A
O304       Zr309   2.429       .  S
O304        C315   1.295       .  A
O305       Zr339   2.425       .  S
O305        C315   1.287       .  A
O306       Zr338   2.566       .  S
O306        C314   1.321       .  A
O307       Zr309   2.624       .  S
O307        C313   1.332       .  A
O308       Zr309   2.427       .  S
O308        C312   1.286       .  A
Zr309       O310   2.338       .  S
Zr309       O311   2.374       .  S
Zr309       O319   2.395       .  S
Zr309       O317   2.303       .  S
O310       Zr336   2.308       .  S
O310       Zr339   2.395       .  S
O311       Zr337   2.330       .  S
O311       Zr338   2.305       .  S
C313        C453   1.528       .  S
H316        O317   0.962       .  S
O317       Zr336   2.368       .  S
O317       Zr338   2.341       .  S
H318        O319   0.966       .  S
O319       Zr337   2.352       .  S
O319       Zr339   2.380       .  S
O320       Zr336   2.438       .  S
O320        C343   1.296       .  A
O321       Zr337   2.401       .  S
O321        C344   1.281       .  A
O322       Zr338   2.460       .  S
O322        C345   1.299       .  A
O323       Zr339   2.409       .  S
O323        C346   1.283       .  A
O324       Zr339   2.473       .  S
O324        C347   1.298       .  A
O325       Zr338   2.476       .  S
O325        C348   1.295       .  A
O326       Zr340   2.440       .  S
O326        C349   1.294       .  A
O327       Zr340   2.453       .  S
O327        C350   1.289       .  A
O328       Zr338   2.430       .  S
O328        C349   1.290       .  A
O329       Zr339   2.601       .  S
O329        C350   1.328       .  A
O330       Zr336   2.471       .  S
O330        C345   1.297       .  A
O331       Zr337   2.564       .  S
O331        C348   1.315       .  A
O332       Zr337   2.410       .  S
O332        C347   1.287       .  A
O333       Zr336   2.608       .  S
O333        C346   1.328       .  A
O334       Zr340   2.473       .  S
O334        C343   1.296       .  A
O335       Zr340   2.585       .  S
O335        C344   1.325       .  A
Zr336       O342   2.376       .  S
Zr336       O354   2.332       .  S
Zr337       O341   2.373       .  S
Zr337       O352   2.290       .  S
Zr338       O342   2.385       .  S
Zr338       O352   2.364       .  S
Zr339       O341   2.326       .  S
Zr339       O354   2.329       .  S
Zr340       O341   2.328       .  S
Zr340       O342   2.386       .  S
Zr340       O354   2.371       .  S
Zr340       O352   2.339       .  S
C345        C449   1.477       .  S
H351        O352   0.961       .  S
H353        O354   0.962       .  S
C355        N356   1.352       .  A
C355        N360   1.332       .  A
C355        C845   1.448       .  S
N356        C357   1.363       .  A
C357        N358   1.368       .  A
C357        C421   1.479       .  S
N358        C359   1.369       .  A
C359        N360   1.339       .  A
C359        C584   1.452       .  S
C361        N362   1.353       .  A
C361        N366   1.351       .  A
C361        C970   1.474       .  S
N362        C363   1.355       .  A
C363        N364   1.393       .  A
C363        C581   1.533       .  S
N364        C365   1.397       .  A
C365        N366   1.353       .  A
C365        C428   1.520       .  S
C367        N368   1.337       .  A
C367        N372   1.345       .  A
C367        C821   1.472       .  S
N368        C369   1.348       .  A
C369        N370   1.372       .  A
N370        C371   1.374       .  A
C371        N372   1.349       .  A
C371        C427   1.451       .  S
C373        N374   1.355       .  A
C373        N378   1.337       .  A
C373        C797   1.444       .  S
N374        C375   1.360       .  A
C375        N376   1.407       .  A
N376        C377   1.403       .  A
C377        N378   1.338       .  A
C377        C426   1.530       .  S
O379       Zr415   2.416       .  S
O379        C390   1.293       .  A
O380       Zr414   2.413       .  S
O380        C391   1.282       .  A
O381       Zr387   2.409       .  S
O381        C392   1.281       .  A
O382       Zr387   2.405       .  S
O382        C393   1.288       .  A
O383       Zr417   2.474       .  S
O383        C393   1.297       .  A
O384       Zr416   2.602       .  S
O384        C392   1.329       .  A
O385       Zr387   2.610       .  S
O385        C391   1.327       .  A
O386       Zr387   2.463       .  S
O386        C390   1.290       .  A
Zr387       O388   2.335       .  S
Zr387       O389   2.374       .  S
Zr387       O397   2.392       .  S
Zr387       O395   2.307       .  S
O388       Zr414   2.320       .  S
O388       Zr417   2.383       .  S
O389       Zr415   2.318       .  S
O389       Zr416   2.287       .  S
C391        C443   1.521       .  S
H394        O395   0.960       .  S
O395       Zr414   2.374       .  S
O395       Zr416   2.324       .  S
H396        O397   0.966       .  S
O397       Zr415   2.373       .  S
O397       Zr417   2.373       .  S
O398       Zr414   2.423       .  S
O398        C421   1.291       .  A
O399       Zr415   2.432       .  S
O399        C422   1.285       .  A
O400       Zr416   2.437       .  S
O400        C423   1.297       .  A
O401       Zr417   2.451       .  S
O401        C424   1.291       .  A
O402       Zr417   2.499       .  S
O402        C425   1.306       .  A
O403       Zr416   2.445       .  S
O403        C426   1.287       .  A
O404       Zr418   2.479       .  S
O404        C427   1.298       .  A
O405       Zr418   2.450       .  S
O405        C428   1.291       .  A
O406       Zr416   2.402       .  S
O406        C427   1.286       .  A
O407       Zr417   2.567       .  S
O407        C428   1.322       .  A
O408       Zr414   2.446       .  S
O408        C423   1.290       .  A
O409       Zr415   2.575       .  S
O409        C426   1.323       .  A
O410       Zr415   2.379       .  S
O410        C425   1.280       .  A
O411       Zr414   2.586       .  S
O411        C424   1.324       .  A
O412       Zr418   2.484       .  S
O412        C421   1.300       .  A
O413       Zr418   2.589       .  S
O413        C422   1.324       .  A
Zr414       O420   2.369       .  S
Zr414       O432   2.331       .  S
Zr415       O419   2.366       .  S
Zr415       O430   2.282       .  S
Zr416       O420   2.373       .  S
Zr416       O430   2.367       .  S
Zr417       O419   2.350       .  S
Zr417       O432   2.355       .  S
Zr418       O419   2.335       .  S
Zr418       O420   2.380       .  S
Zr418       O432   2.390       .  S
Zr418       O430   2.347       .  S
C423        C437   1.458       .  S
H429        O430   0.963       .  S
H431        O432   0.964       .  S
C433        N434   1.344       .  A
C433        N438   1.338       .  A
C433        C898   1.485       .  S
N434        C435   1.351       .  A
C435        N436   1.373       .  A
C435        C511   1.472       .  S
N436        C437   1.375       .  A
C437        N438   1.353       .  A
C439        N440   1.351       .  A
C439        N444   1.355       .  A
C439        C773   1.473       .  S
N440        C441   1.337       .  A
C441        N442   1.397       .  A
C441        C517   1.521       .  S
N442        C443   1.401       .  A
C443        N444   1.346       .  A
C445        N446   1.326       .  A
C445        N450   1.348       .  A
C445        C749   1.431       .  S
N446        C447   1.334       .  A
C447        N448   1.372       .  A
C447        C514   1.444       .  S
N448        C449   1.376       .  A
C449        N450   1.356       .  A
C451        N452   1.350       .  A
C451        N456   1.357       .  A
C451        C802   1.452       .  S
N452        C453   1.340       .  A
C453        N454   1.404       .  A
N454        C455   1.403       .  A
C455        N456   1.344       .  A
C455        C481   1.539       .  S
C457        N458   1.338       .  A
C457        N462   1.335       .  A
C457        C850   1.476       .  S
N458        C459   1.361       .  A
C459        N460   1.369       .  A
C459        C518   1.457       .  S
N460        C461   1.368       .  A
C461        N462   1.347       .  A
C461        C661   1.453       .  S
C463        N464   1.367       .  A
C463        N468   1.346       .  A
C463        C874   1.476       .  S
N464        C465   1.364       .  A
C465        N466   1.402       .  A
C465        C515   1.545       .  S
N466        C467   1.396       .  A
C467        N468   1.336       .  A
C467        C660   1.527       .  S
O469       Zr505   2.471       .  S
O469        C480   1.301       .  A
O470       Zr504   2.417       .  S
O470        C481   1.285       .  A
O471       Zr477   2.507       .  S
O471        C482   1.311       .  A
O472       Zr477   2.472       .  S
O472        C483   1.295       .  A
O473       Zr507   2.571       .  S
O473        C483   1.319       .  A
O474       Zr506   2.399       .  S
O474        C482   1.282       .  A
O475       Zr477   2.629       .  S
O475        C481   1.334       .  A
O476       Zr477   2.446       .  S
O476        C480   1.293       .  A
Zr477       O478   2.311       .  S
Zr477       O479   2.377       .  S
Zr477       O487   2.377       .  S
Zr477       O485   2.314       .  S
O478       Zr504   2.362       .  S
O478       Zr507   2.334       .  S
O479       Zr505   2.368       .  S
O479       Zr506   2.394       .  S
H484        O485   0.962       .  S
O485       Zr504   2.317       .  S
O485       Zr506   2.393       .  S
H486        O487   0.956       .  S
O487       Zr505   2.316       .  S
O487       Zr507   2.318       .  S
O488       Zr504   2.444       .  S
O488        C511   1.298       .  A
O489       Zr505   2.420       .  S
O489        C512   1.285       .  A
O490       Zr506   2.457       .  S
O490        C513   1.289       .  A
O491       Zr507   2.435       .  S
O491        C514   1.295       .  A
O492       Zr507   2.430       .  S
O492        C515   1.288       .  A
O493       Zr506   2.460       .  S
O493        C516   1.295       .  A
O494       Zr508   2.425       .  S
O494        C517   1.285       .  A
O495       Zr508   2.385       .  S
O495        C518   1.286       .  A
O496       Zr506   2.586       .  S
O496        C517   1.323       .  A
O497       Zr507   2.459       .  S
O497        C518   1.294       .  A
O498       Zr504   2.545       .  S
O498        C513   1.318       .  A
O499       Zr505   2.437       .  S
O499        C516   1.293       .  A
O500       Zr505   2.615       .  S
O500        C515   1.329       .  A
O501       Zr504   2.424       .  S
O501        C514   1.288       .  A
O502       Zr508   2.448       .  S
O502        C511   1.290       .  A
O503       Zr508   2.588       .  S
O503        C512   1.322       .  A
Zr504       O510   2.336       .  S
Zr504       O522   2.376       .  S
Zr505       O509   2.308       .  S
Zr505       O520   2.389       .  S
Zr506       O510   2.303       .  S
Zr506       O520   2.331       .  S
Zr507       O509   2.366       .  S
Zr507       O522   2.393       .  S
Zr508       O509   2.345       .  S
Zr508       O510   2.362       .  S
Zr508       O522   2.389       .  S
Zr508       O520   2.312       .  S
H519        O520   0.961       .  S
H521        O522   0.966       .  S
C523        N524   1.331       .  A
C523        N528   1.361       .  A
C523        C826   1.458       .  S
N524        C525   1.335       .  A
C525        N526   1.371       .  A
C525        C580   1.455       .  S
N526        C527   1.377       .  A
C527        N528   1.364       .  A
C527        C711   1.490       .  S
C529        N530   1.344       .  A
C529        N534   1.361       .  A
C529        C730   1.474       .  S
N530        C531   1.341       .  A
C531        N532   1.397       .  A
C531        C679   1.502       .  S
N532        C533   1.396       .  A
C533        N534   1.346       .  A
C533        C547   1.529       .  S
O535       Zr571   2.474       .  S
O535        C546   1.301       .  A
O536       Zr570   2.411       .  S
O536        C547   1.284       .  A
O537       Zr543   2.438       .  S
O537        C548   1.299       .  A
O538       Zr543   2.467       .  S
O538        C549   1.293       .  A
O539       Zr573   2.556       .  S
O539        C549   1.317       .  A
O540       Zr572   2.441       .  S
O540        C548   1.290       .  A
O541       Zr543   2.615       .  S
O541        C547   1.329       .  A
O542       Zr543   2.432       .  S
O542        C546   1.290       .  A
Zr543       O544   2.295       .  S
Zr543       O545   2.393       .  S
Zr543       O553   2.367       .  S
Zr543       O551   2.343       .  S
O544       Zr570   2.376       .  S
O544       Zr573   2.333       .  S
O545       Zr571   2.367       .  S
O545       Zr572   2.378       .  S
H550        O551   0.961       .  S
O551       Zr570   2.300       .  S
O551       Zr572   2.382       .  S
H552        O553   0.963       .  S
O553       Zr571   2.348       .  S
O553       Zr573   2.308       .  S
O554       Zr570   2.445       .  S
O554        C577   1.287       .  A
O555       Zr571   2.463       .  S
O555        C578   1.294       .  A
O556       Zr572   2.456       .  S
O556        C579   1.291       .  A
O557       Zr573   2.469       .  S
O557        C580   1.301       .  A
O558       Zr573   2.501       .  S
O558        C581   1.299       .  A
O559       Zr572   2.454       .  S
O559        C582   1.299       .  A
O560       Zr574   2.503       .  S
O560        C583   1.300       .  A
O561       Zr574   2.478       .  S
O561        C584   1.305       .  A
O562       Zr572   2.568       .  S
O562        C583   1.319       .  A
O563       Zr573   2.380       .  S
O563        C584   1.279       .  A
O564       Zr570   2.620       .  S
O564        C579   1.329       .  A
O565       Zr571   2.436       .  S
O565        C582   1.289       .  A
O566       Zr571   2.510       .  S
O566        C581   1.308       .  A
O567       Zr570   2.422       .  S
O567        C580   1.289       .  A
O568       Zr574   2.450       .  S
O568        C577   1.286       .  A
O569       Zr574   2.575       .  S
O569        C578   1.320       .  A
Zr570       O576   2.317       .  S
Zr570       O588   2.389       .  S
Zr571       O575   2.331       .  S
Zr571       O586   2.375       .  S
Zr572       O576   2.312       .  S
Zr572       O586   2.364       .  S
Zr573       O575   2.377       .  S
Zr573       O588   2.404       .  S
Zr574       O575   2.352       .  S
Zr574       O576   2.381       .  S
Zr574       O588   2.394       .  S
Zr574       O586   2.332       .  S
C577        C603   1.484       .  S
C583        C611   1.556       .  S
H585        O586   0.963       .  S
H587        O588   0.966       .  S
C589        N590   1.355       .  A
C589        N594   1.346       .  A
C589        C754   1.487       .  S
N590        C591   1.356       .  A
C591        N592   1.369       .  A
N592        C593   1.372       .  A
C593        N594   1.354       .  A
C593        C657   1.455       .  S
C595        N596   1.357       .  A
C595        N600   1.360       .  A
C595        C725   1.485       .  S
N596        C597   1.358       .  A
C597        N598   1.404       .  A
C597        C625   1.550       .  S
N598        C599   1.402       .  A
C599        N600   1.363       .  A
C601        N602   1.343       .  A
C601        N606   1.370       .  A
C601        C946   1.509       .  S
N602        C603   1.350       .  A
C603        N604   1.364       .  A
N604        C605   1.378       .  A
C605        N606   1.377       .  A
C605        C655   1.495       .  S
C607        N608   1.334       .  A
C607        N612   1.361       .  A
C607        C778   1.463       .  S
N608        C609   1.333       .  A
C609        N610   1.402       .  A
C609        C662   1.529       .  S
N610        C611   1.408       .  A
C611        N612   1.366       .  A
O613       Zr649   2.468       .  S
O613        C624   1.298       .  A
O614       Zr648   2.491       .  S
O614        C625   1.299       .  A
O615       Zr621   2.440       .  S
O615        C626   1.289       .  A
O616       Zr621   2.479       .  S
O616        C627   1.302       .  A
O617       Zr651   2.423       .  S
O617        C627   1.289       .  A
O618       Zr650   2.567       .  S
O618        C626   1.321       .  A
O619       Zr621   2.579       .  S
O619        C625   1.322       .  A
O620       Zr621   2.460       .  S
O620        C624   1.296       .  A
Zr621       O622   2.342       .  S
Zr621       O623   2.380       .  S
Zr621       O631   2.377       .  S
Zr621       O629   2.341       .  S
O622       Zr648   2.323       .  S
O622       Zr651   2.378       .  S
O623       Zr649   2.343       .  S
O623       Zr650   2.338       .  S
H628        O629   0.962       .  S
O629       Zr648   2.369       .  S
O629       Zr650   2.333       .  S
H630        O631   0.966       .  S
O631       Zr649   2.382       .  S
O631       Zr651   2.385       .  S
O632       Zr648   2.496       .  S
O632        C655   1.304       .  A
O633       Zr649   2.434       .  S
O633        C656   1.287       .  A
O634       Zr650   2.480       .  S
O634        C657   1.299       .  A
O635       Zr651   2.473       .  S
O635        C658   1.295       .  A
O636       Zr651   2.450       .  S
O636        C659   1.296       .  A
O637       Zr650   2.447       .  S
O637        C660   1.289       .  A
O638       Zr652   2.430       .  S
O638        C661   1.295       .  A
O639       Zr652   2.439       .  S
O639        C662   1.286       .  A
O640       Zr650   2.439       .  S
O640        C661   1.289       .  A
O641       Zr651   2.586       .  S
O641        C662   1.327       .  A
O642       Zr648   2.392       .  S
O642        C657   1.285       .  A
O643       Zr649   2.589       .  S
O643        C660   1.324       .  A
O644       Zr649   2.438       .  S
O644        C659   1.291       .  A
O645       Zr648   2.513       .  S
O645        C658   1.310       .  A
O646       Zr652   2.472       .  S
O646        C655   1.298       .  A
O647       Zr652   2.597       .  S
O647        C656   1.327       .  A
Zr648       O654   2.372       .  S
Zr648       O666   2.334       .  S
Zr649       O653   2.381       .  S
Zr649       O664   2.322       .  S
Zr650       O654   2.384       .  S
Zr650       O664   2.383       .  S
Zr651       O653   2.339       .  S
Zr651       O666   2.292       .  S
Zr652       O653   2.320       .  S
Zr652       O654   2.375       .  S
Zr652       O666   2.359       .  S
Zr652       O664   2.343       .  S
H663        O664   0.962       .  S
H665        O666   0.958       .  S
O667       Zr703   2.442       .  S
O667        C678   1.291       .  A
O668       Zr702   2.439       .  S
O668        C679   1.289       .  A
O669       Zr675   2.395       .  S
O669        C680   1.281       .  A
O670       Zr675   2.436       .  S
O670        C681   1.294       .  A
O671       Zr705   2.464       .  S
O671        C681   1.294       .  A
O672       Zr704   2.621       .  S
O672        C680   1.330       .  A
O673       Zr675   2.559       .  S
O673        C679   1.318       .  A
O674       Zr675   2.445       .  S
O674        C678   1.294       .  A
Zr675       O676   2.332       .  S
Zr675       O677   2.359       .  S
Zr675       O685   2.351       .  S
Zr675       O683   2.320       .  S
O676       Zr702   2.329       .  S
O676       Zr705   2.364       .  S
O677       Zr703   2.335       .  S
O677       Zr704   2.304       .  S
H682        O683   0.962       .  S
O683       Zr702   2.370       .  S
O683       Zr704   2.305       .  S
H684        O685   0.965       .  S
O685       Zr703   2.387       .  S
O685       Zr705   2.379       .  S
O686       Zr702   2.474       .  S
O686        C709   1.305       .  A
O687       Zr703   2.433       .  S
O687        C710   1.287       .  A
O688       Zr704   2.484       .  S
O688        C711   1.302       .  A
O689       Zr705   2.426       .  S
O689        C712   1.285       .  A
O690       Zr705   2.429       .  S
O690        C713   1.287       .  A
O691       Zr704   2.408       .  S
O691        C714   1.282       .  A
O692       Zr706   2.479       .  S
O692        C715   1.301       .  A
O693       Zr706   2.472       .  S
O693        C716   1.293       .  A
O694       Zr704   2.407       .  S
O694        C715   1.285       .  A
O695       Zr705   2.612       .  S
O695        C716   1.329       .  A
O696       Zr702   2.470       .  S
O696        C711   1.298       .  A
O697       Zr703   2.599       .  S
O697        C714   1.326       .  A
O698       Zr703   2.442       .  S
O698        C713   1.289       .  A
O699       Zr702   2.573       .  S
O699        C712   1.322       .  A
O700       Zr706   2.442       .  S
O700        C709   1.290       .  A
O701       Zr706   2.570       .  S
O701        C710   1.320       .  A
Zr702       O708   2.365       .  S
Zr702       O720   2.334       .  S
Zr703       O707   2.395       .  S
Zr703       O718   2.312       .  S
Zr704       O708   2.382       .  S
Zr704       O718   2.392       .  S
Zr705       O707   2.356       .  S
Zr705       O720   2.316       .  S
Zr706       O707   2.320       .  S
Zr706       O708   2.394       .  S
Zr706       O720   2.376       .  S
Zr706       O718   2.357       .  S
H717        O718   0.963       .  S
H719        O720   0.963       .  S
C721        C722   1.413   1_556  A
C721        C726   1.405       .  A
C721        C735   1.438   1_545  S
C722        C727   1.499       .  S
C722        C723   1.407       .  A
C723        C724   1.404   1_554  A
C723        H742   1.085       .  S
C724        C725   1.410       .  A
C724        C736   1.444       .  S
C725        C726   1.403       .  A
C726        H741   1.080       .  S
C727        C728   1.422       .  A
C727        C732   1.423   1_545  A
C728        C729   1.405   1_545  A
C728        H743   1.077       .  S
C729        C730   1.382   1_565  A
C729        C733   1.440       .  S
C730        C731   1.392   1_545  A
C731        C732   1.396       .  A
C731        H744   1.085       .  S
C732        C734   1.430       .  S
C733        N737   1.157       .  T
C734        N738   1.153       .  T
C735        N740   1.155       .  T
C736        N739   1.157       .  T
C745        C746   1.396       .  A
C745        C750   1.386       .  A
C745        C759   1.445       .  S
C746        C751   1.448       .  S
C746        C747   1.403       .  A
C747        C748   1.390       .  A
C747        H766   1.085       .  S
C748        C749   1.402       .  A
C748        C760   1.445       .  S
C749        C750   1.402       .  A
C750        H765   1.086       .  S
C751        C752   1.397       .  A
C751        C756   1.419       .  A
C752        C753   1.397       .  A
C752        H767   1.085       .  S
C753        C754   1.415       .  A
C753        C757   1.434       .  S
C754        C755   1.392       .  A
C755        C756   1.391       .  A
C755        H768   1.086       .  S
C756        C758   1.447       .  S
C757        N761   1.155       .  T
C758        N762   1.158       .  T
C759        N764   1.157       .  T
C760        N763   1.157       .  T
C769        C770   1.417       .  A
C769        C774   1.398       .  A
C769        C783   1.445       .  S
C770        C775   1.469       .  S
C770        C771   1.407       .  A
C771        C772   1.393       .  A
C771        H790   1.085       .  S
C772        C773   1.403       .  A
C772        C784   1.443       .  S
C773        C774   1.406       .  A
C774        H789   1.085       .  S
C775        C776   1.393       .  A
C775        C780   1.414       .  A
C776        C777   1.384   1_565  A
C776        H791   1.082       .  S
C777        C778   1.422       .  A
C777        C781   1.448       .  S
C778        C779   1.400   1_545  A
C779        C780   1.398       .  A
C779        H792   1.085       .  S
C780        C782   1.445       .  S
C781        N785   1.158       .  T
C782        N786   1.157       .  T
C783        N788   1.157       .  T
C784        N787   1.157       .  T
C793        C794   1.394   1_554  A
C793        C798   1.392       .  A
C793        C807   1.440       .  S
C794        C799   1.457       .  S
C794        C795   1.402       .  A
C795        C796   1.392   1_556  A
C795        H814   1.085       .  S
C796        C797   1.408       .  A
C796        C808   1.442       .  S
C797        C798   1.397       .  A
C798        H813   1.077       .  S
C799        C800   1.408       .  A
C799        C804   1.410       .  A
C800        C801   1.394       .  A
C800        H815   1.081       .  S
C801        C802   1.401       .  A
C801        C805   1.441       .  S
C802        C803   1.399       .  A
C803        C804   1.372       .  A
C803        H816   1.075       .  S
C804        C806   1.452       .  S
C805        N809   1.157       .  T
C806        N810   1.158       .  T
C807        N812   1.158   1_554  T
C808        N811   1.156       .  T
C817        C818   1.411       .  A
C817        C822   1.403       .  A
C817        C831   1.436       .  S
C818        C823   1.472       .  S
C818        C819   1.391       .  A
C819        C820   1.383       .  A
C819        H838   1.063       .  S
C820        C821   1.404       .  A
C820        C832   1.440       .  S
C821        C822   1.407       .  A
C822        H837   1.085       .  S
C823        C824   1.390       .  A
C823        C828   1.426       .  A
C824        C825   1.389       .  A
C824        H839   1.084       .  S
C825        C826   1.420       .  A
C825        C829   1.440       .  S
C826        C827   1.387       .  A
C827        C828   1.386       .  A
C827        H840   1.086       .  S
C828        C830   1.443       .  S
C829        N833   1.156       .  T
C830        N834   1.156       .  T
C831        N836   1.155       .  T
C832        N835   1.155       .  T
C841        C842   1.398       .  A
C841        C846   1.389       .  A
C841        C855   1.442       .  S
C842        C847   1.471       .  S
C842        C843   1.416       .  A
C843        C844   1.387       .  A
C843        H862   1.083       .  S
C844        C845   1.394       .  A
C844        C856   1.443       .  S
C845        C846   1.409       .  A
C846        H861   1.085       .  S
C847        C848   1.402       .  A
C847        C852   1.400       .  A
C848        C849   1.398       .  A
C848        H863   1.084       .  S
C849        C850   1.418       .  A
C849        C853   1.444       .  S
C850        C851   1.411       .  A
C851        C852   1.394       .  A
C851        H864   1.084       .  S
C852        C854   1.442       .  S
C853        N857   1.157       .  T
C854        N858   1.157       .  T
C855        N860   1.157       .  T
C856        N859   1.157       .  T
C865        C866   1.417       .  A
C865        C870   1.401       .  A
C865        C879   1.445       .  S
C866        C871   1.485       .  S
C866        C867   1.395       .  A
C867        C868   1.386       .  A
C867        H886   1.075       .  S
C868        C869   1.419   1_655  A
C868        C880   1.448   1_655  S
C869        C870   1.401   1_455  A
C870        H885   1.085       .  S
C871        C872   1.401       .  A
C871        C876   1.408       .  A
C872        C873   1.391       .  A
C872        H887   1.083       .  S
C873        C874   1.417       .  A
C873        C877   1.446       .  S
C874        C875   1.397       .  A
C875        C876   1.394       .  A
C875        H888   1.084       .  S
C876        C878   1.431   1_556  S
C877        N881   1.157       .  T
C878        N882   1.154       .  T
C879        N884   1.157       .  T
C880        N883   1.158       .  T
C889        C890   1.403       .  A
C889        C894   1.392       .  A
C889        C903   1.440       .  S
C890        C895   1.483       .  S
C890        C891   1.406       .  A
C891        C892   1.401       .  A
C891        H910   1.084       .  S
C892        C893   1.406       .  A
C892        C904   1.436       .  S
C893        C894   1.402       .  A
C894        H909   1.085       .  S
C895        C896   1.417       .  A
C895        C900   1.430       .  A
C896        C897   1.411       .  A
C896        H911   1.082       .  S
C897        C898   1.398       .  A
C897        C901   1.433       .  S
C898        C899   1.397       .  A
C899        C900   1.402       .  A
C899        H912   1.085       .  S
C900        C902   1.441       .  S
C901        N905   1.156       .  T
C902        N906   1.156       .  T
C903        N908   1.157       .  T
C904        N907   1.155       .  T
C913        C914   1.400   1_545  A
C913        C918   1.391       .  A
C913        C927   1.434       .  S
C914        C919   1.447       .  S
C914        C915   1.400   1_655  A
C915        C916   1.373   1_565  A
C915        H934   1.086       .  S
C916        C917   1.405       .  A
C916        C928   1.448       .  S
C917        C918   1.396   1_455  A
C918        H933   1.083       .  S
C919        C920   1.402       .  A
C919        C924   1.399       .  A
C920        C921   1.389       .  A
C920        H935   1.084       .  S
C921        C922   1.415       .  A
C921        C925   1.446   1_655  S
C922        C923   1.408       .  A
C923        C924   1.379       .  A
C923        H936   1.084       .  S
C924        C926   1.446       .  S
C925        N929   1.158       .  T
C926        N930   1.157       .  T
C927        N932   1.155       .  T
C928        N931   1.157       .  T
C937        C938   1.416       .  A
C937        C942   1.391       .  A
C937        C951   1.446       .  S
C938        C943   1.473       .  S
C938        C939   1.400       .  A
C939        C940   1.373       .  A
C939        H958   1.081       .  S
C940        C941   1.409       .  A
C940        C952   1.446       .  S
C941        C942   1.403       .  A
C942        H957   1.085       .  S
C943        C944   1.417       .  A
C943        C948   1.429       .  A
C944        C945   1.394       .  A
C944        H959   1.082       .  S
C945        C946   1.399       .  A
C945        C949   1.448       .  S
C946        C947   1.403       .  A
C947        C948   1.398       .  A
C947        H960   1.073       .  S
C948        C950   1.438       .  S
C949        N953   1.158       .  T
C950        N954   1.154       .  T
C951        N956   1.157       .  T
C952        N955   1.156       .  T
C961        C962   1.420       .  A
C961        C966   1.397       .  A
C961        C975   1.443       .  S
C962        C967   1.491   1_455  S
C962        C963   1.421       .  A
C963        C964   1.406       .  A
C963        H982   1.083   1_455  S
C964        C965   1.388       .  A
C964        C976   1.436       .  S
C965        C966   1.401       .  A
C966        H981   1.086       .  S
C967        C968   1.405       .  A
C967        C972   1.413       .  A
C968        C969   1.393       .  A
C968        H983   1.076       .  S
C969        C970   1.409       .  A
C969        C973   1.446       .  S
C970        C971   1.404       .  A
C971        C972   1.398       .  A
C971        H984   1.085       .  S
C972        C974   1.446       .  S
C973        N977   1.157       .  T
C974        N978   1.158   1_655  T
C975        N980   1.157       .  T
C976        N979   1.157   1_554  T
C985        C986   1.401       .  A
C985        C990   1.395       .  A
C985        C999   1.442       .  S
C986        C991   1.454       .  S
C986        C987   1.404       .  A
C987        C988   1.373       .  A
C987       H1006   1.086       .  S
C988        C989   1.408       .  A
C988       C1000   1.451       .  S
C989        C990   1.403       .  A
C990       H1005   1.083       .  S
C991        C992   1.399       .  A
C991        C996   1.427       .  A
C992        C993   1.380       .  A
C992       H1007   1.080       .  S
C993        C994   1.406       .  A
C993        C997   1.442       .  S
C994        C995   1.385       .  A
C995        C996   1.381       .  A
C995       H1008   1.087       .  S
C996        C998   1.444       .  S
C997       N1001   1.155       .  T
C998       N1002   1.157       .  T
C999       N1004   1.157       .  T
C1000      N1003   1.158       .  T
C1009      C1010   1.418       .  A
C1009      C1014   1.389       .  A
C1009      C1023   1.444   1_665  S
C1010      C1015   1.479   1_565  S
C1010      C1011   1.404       .  A
C1011      C1012   1.394       .  A
C1011      H1030   1.085       .  S
C1012      C1013   1.412       .  A
C1012      C1024   1.444       .  S
C1013      C1014   1.398       .  A
C1014      H1029   1.086       .  S
C1015      C1016   1.408       .  A
C1015      C1020   1.415       .  A
C1016      C1017   1.392       .  A
C1016      H1031   1.083       .  S
C1017      C1018   1.386       .  A
C1017      C1021   1.429       .  S
C1018      C1019   1.405       .  A
C1019      C1020   1.400       .  A
C1019      H1032   1.077   1_655  S
C1020      C1022   1.444   1_655  S
C1021      N1025   1.152       .  T
C1022      N1026   1.157   1_545  T
C1023      N1028   1.157       .  T
C1024      N1027   1.157       .  T
C1033      C1034   1.393   1_455  A
C1033      C1038   1.386   1_455  A
C1033      C1047   1.438       .  S
C1034      C1039   1.460       .  S
C1034      C1035   1.403       .  A
C1035      C1036   1.390       .  A
C1035      H1054   1.085       .  S
C1036      C1037   1.407       .  A
C1036      C1048   1.442       .  S
C1037      C1038   1.404       .  A
C1038      H1053   1.085   1_655  S
C1039      C1040   1.401       .  A
C1039      C1044   1.416       .  A
C1040      C1041   1.395       .  A
C1040      H1055   1.083   1_655  S
C1041      C1042   1.412       .  A
C1041      C1045   1.444   1_655  S
C1042      C1043   1.391       .  A
C1043      C1044   1.377       .  A
C1043      H1056   1.075       .  S
C1044      C1046   1.447       .  S
C1045      N1049   1.157       .  T
C1046      N1050   1.157       .  T
C1047      N1052   1.157       .  T
C1048      N1051   1.155       .  T
C1057      C1058   1.416       .  A
C1057      C1062   1.392       .  A
C1057      C1071   1.445       .  S
C1058      C1063   1.466       .  S
C1058      C1059   1.391       .  A
C1059      C1060   1.389       .  A
C1059      H1078   1.068       .  S
C1060      C1061   1.400       .  A
C1060      C1072   1.446       .  S
C1061      C1062   1.394       .  A
C1062      H1077   1.085       .  S
C1063      C1064   1.405       .  A
C1063      C1068   1.405       .  A
C1064      C1065   1.400       .  A
C1064      H1079   1.081       .  S
C1065      C1066   1.404       .  A
C1065      C1069   1.442       .  S
C1066      C1067   1.409       .  A
C1067      C1068   1.390       .  A
C1067      H1080   1.085   1_655  S
C1068      C1070   1.446   1_655  S
C1069      N1073   1.157       .  T
C1070      N1074   1.157       .  T
C1071      N1076   1.157       .  T
C1072      N1075   1.158       .  T
C1081      C1082   1.420       .  A
C1081      C1086   1.393   1_565  A
C1081      C1095   1.443       .  S
C1082      C1087   1.511       .  S
C1082      C1083   1.418       .  A
C1083      C1084   1.393       .  A
C1083      H1102   1.082       .  S
C1084      C1085   1.404   1_565  A
C1084      C1096   1.445       .  S
C1085      C1086   1.403       .  A
C1086      H1101   1.085       .  S
C1087      C1088   1.394       .  A
C1087      C1092   1.408       .  A
C1088      C1089   1.391       .  A
C1088      H1103   1.075       .  S
C1089      C1090   1.427       .  A
C1089      C1093   1.440       .  S
C1090      C1091   1.410       .  A
C1091      C1092   1.406       .  A
C1091      H1104   1.083       .  S
C1092      C1094   1.436       .  S
C1093      N1097   1.156       .  T
C1094      N1098   1.156   1_556  T
C1095      N1100   1.157       .  T
C1096      N1099   1.157   1_655  T
C1105      C1106   1.417       .  A
C1105      C1110   1.398       .  A
C1105      C1119   1.441   1_565  S
C1106      C1111   1.479       .  S
C1106      C1107   1.411       .  A
C1107      C1108   1.391       .  A
C1107      H1126   1.082       .  S
C1108      C1109   1.404       .  A
C1108      C1120   1.447       .  S
C1109      C1110   1.400       .  A
C1110      H1125   1.085   1_565  S
C1111      C1112   1.409       .  A
C1111      C1116   1.401       .  A
C1112      C1113   1.402       .  A
C1112      H1127   1.084   1_565  S
C1113      C1114   1.407       .  A
C1113      C1117   1.435   1_565  S
C1114      C1115   1.392       .  A
C1115      C1116   1.372       .  A
C1115      H1128   1.084       .  S
C1116      C1118   1.421       .  S
C1117      N1121   1.154       .  T
C1118      N1122   1.148       .  T
C1119      N1124   1.156       .  T
C1120      N1123   1.157       .  T
C1129      C1130   1.425       .  A
C1129      C1134   1.395       .  A
C1129      C1143   1.446       .  S
C1130      C1135   1.503       .  S
C1130      C1131   1.423   1_565  A
C1131      C1132   1.410   1_545  A
C1131      H1150   1.077       .  S
C1132      C1133   1.387       .  A
C1132      C1144   1.434   1_565  S
C1133      C1134   1.396       .  A
C1134      H1149   1.085       .  S
C1135      C1136   1.413       .  A
C1135      C1140   1.414   1_565  A
C1136      C1137   1.394   1_556  A
C1136      H1151   1.085       .  S
C1137      C1138   1.402       .  A
C1137      C1141   1.442       .  S
C1138      C1139   1.411   1_565  A
C1139      C1140   1.406   1_554  A
C1139      H1152   1.085       .  S
C1140      C1142   1.443       .  S
C1141      N1145   1.156       .  T
C1142      N1146   1.158       .  T
C1143      N1148   1.157       .  T
C1144      N1147   1.157       .  T
C1153      C1154   1.416       .  A
C1153      C1158   1.371       .  A
C1153      C1167   1.442       .  S
C1154      C1159   1.470       .  S
C1154      C1155   1.405       .  A
C1155      C1156   1.396       .  A
C1155      H1174   1.081   1_565  S
C1156      C1157   1.411       .  A
C1156      C1168   1.444   1_565  S
C1157      C1158   1.394       .  A
C1158      H1173   1.086       .  S
C1159      C1160   1.400       .  A
C1159      C1164   1.420       .  A
C1160      C1161   1.375       .  A
C1160      H1175   1.085       .  S
C1161      C1162   1.408       .  A
C1161      C1165   1.449       .  S
C1162      C1163   1.394       .  A
C1163      C1164   1.398       .  A
C1163      H1176   1.085       .  S
C1164      C1166   1.442       .  S
C1165      N1169   1.157       .  T
C1166      N1170   1.157   1_565  T
C1167      N1172   1.155       .  T
C1168      N1171   1.157       .  T
C1177      C1178   1.409       .  A
C1177      C1182   1.388       .  A
C1177      C1191   1.442   1_556  S
C1178      C1183   1.446   1_556  S
C1178      C1179   1.387       .  A
C1179      C1180   1.386       .  A
C1179      H1198   1.082       .  S
C1180      C1181   1.420       .  A
C1180      C1192   1.446       .  S
C1181      C1182   1.394       .  A
C1182      H1197   1.078       .  S
C1183      C1184   1.410       .  A
C1183      C1188   1.393       .  A
C1184      C1185   1.383       .  A
C1184      H1199   1.085   1_554  S
C1185      C1186   1.399       .  A
C1185      C1189   1.445   1_565  S
C1186      C1187   1.407       .  A
C1187      C1188   1.389       .  A
C1187      H1200   1.085       .  S
C1188      C1190   1.437       .  S
C1189      N1193   1.158       .  T
C1190      N1194   1.155       .  T
C1191      N1196   1.156       .  T
C1192      N1195   1.157       .  T
C1201      C1202   1.429       .  A
C1201      C1206   1.391       .  A
C1201      C1215   1.445       .  S
C1202      C1207   1.499       .  S
C1202      C1203   1.412   1_554  A
C1203      C1204   1.395       .  A
C1203      H1222   1.079       .  S
C1204      C1205   1.400   1_556  A
C1204      C1216   1.443       .  S
C1205      C1206   1.396       .  A
C1206      H1221   1.086       .  S
C1207      C1208   1.403       .  A
C1207      C1212   1.424   1_554  A
C1208      C1209   1.391       .  A
C1208      H1223   1.080       .  S
C1209      C1210   1.410       .  A
C1209      C1213   1.444       .  S
C1210      C1211   1.402   1_554  A
C1211      C1212   1.395       .  A
C1211      H1224   1.085       .  S
C1212      C1214   1.446       .  S
C1213      N1217   1.158       .  T
C1214      N1218   1.158       .  T
C1215      N1220   1.158       .  T
C1216      N1219   1.157       .  T
C1225      C1226   1.410       .  A
C1225      C1230   1.394   1_655  A
C1225      C1239   1.442       .  S
C1226      C1231   1.494       .  S
C1226      C1227   1.406   1_644  A
C1227      C1228   1.396   1_565  A
C1227      H1246   1.070       .  S
C1228      C1229   1.406   1_556  A
C1228      C1240   1.443       .  S
C1229      C1230   1.406       .  A
C1230      H1245   1.085       .  S
C1231      C1232   1.419   1_554  A
C1231      C1236   1.407       .  A
C1232      C1233   1.397       .  A
C1232      H1247   1.082       .  S
C1233      C1234   1.401       .  A
C1233      C1237   1.445       .  S
C1234      C1235   1.407   1_556  A
C1235      C1236   1.397       .  A
C1235      H1248   1.085       .  S
C1236      C1238   1.443   1_545  S
C1237      N1241   1.157       .  T
C1238      N1242   1.157       .  T
C1239      N1244   1.157       .  T
C1240      N1243   1.157       .  T
C1249      C1250   1.423       .  A
C1249      C1254   1.396       .  A
C1249      C1263   1.446       .  S
C1250      C1255   1.485       .  S
C1250      C1251   1.411   1_556  A
C1251      C1252   1.395       .  A
C1251      H1270   1.082       .  S
C1252      C1253   1.397   1_554  A
C1252      C1264   1.442       .  S
C1253      C1254   1.401       .  A
C1254      H1269   1.086       .  S
C1255      C1256   1.400       .  A
C1255      C1260   1.417   1_556  A
C1256      C1257   1.390       .  A
C1256      H1271   1.082       .  S
C1257      C1258   1.412       .  A
C1257      C1261   1.446       .  S
C1258      C1259   1.400   1_556  A
C1259      C1260   1.395       .  A
C1259      H1272   1.085       .  S
C1260      C1262   1.446       .  S
C1261      N1265   1.157       .  T
C1262      N1266   1.157       .  T
C1263      N1268   1.158       .  T
C1264      N1267   1.157       .  T
C1273      C1274   1.435       .  A
C1273      C1278   1.390       .  A
C1273      C1287   1.443       .  S
C1274      C1279   1.516   1_556  S
C1274      C1275   1.425   1_556  A
C1275      C1276   1.394       .  A
C1275      H1294   1.079       .  S
C1276      C1277   1.395   1_554  A
C1276      C1288   1.443       .  S
C1277      C1278   1.393       .  A
C1278      H1293   1.085       .  S
C1279      C1280   1.394   1_554  A
C1279      C1284   1.410       .  A
C1280      C1281   1.390   1_655  A
C1280      H1295   1.075       .  S
C1281      C1282   1.419   1_556  A
C1281      C1285   1.436       .  S
C1282      C1283   1.415       .  A
C1283      C1284   1.398   1_455  A
C1283      H1296   1.084       .  S
C1284      C1286   1.443       .  S
C1285      N1289   1.154       .  T
C1286      N1290   1.157       .  T
C1287      N1292   1.157       .  T
C1288      N1291   1.157       .  T
