geometry optimzed in LAMMPS
_audit_creation_date              2020-11-30 
_audit_creation_method            'lammps2cif' 
_symmetry_space_group_name_H-M    'P1' 
_symmetry_Int_Tables_number       1 
_symmetry_cell_setting            triclinic 
loop_ 
_symmetry_equiv_pos_as_xyz 
  x,y,z 
_cell_length_a                    55.82847845 
_cell_length_b                    55.79315631060501 
_cell_length_c                    55.8085236645806 
_cell_angle_alpha                 90.2133926031706 
_cell_angle_beta                  89.9060817756565 
_cell_angle_gamma                 89.82199767153548 
loop_ 
_atom_site_label 
_atom_site_type_symbol 
_atom_site_fract_x 
_atom_site_fract_y 
_atom_site_fract_z 
_atom_site_charge 
C1          C  0.14985958  0.77488379  0.98172538     0.79900
N2          N  0.12802385  0.78564156  0.98323521    -0.78400
C3          C  0.11799931  0.79082851  0.00484680     0.82300
N4          N  0.13017326  0.78510265  0.02505471    -0.78400
C5          C  0.15205047  0.77449646  0.02396435     0.82400
N6          N  0.16183961  0.76932338  0.00220033    -0.80100
C7          C  0.32998965  0.60000717  0.02309368     0.79900
N8          N  0.32531409  0.61256949  0.00277386    -0.78400
C9          C  0.32455908  0.60131681  0.98111146     0.82300
N10         N  0.32846905  0.57728974  0.97992837    -0.78400
C11         C  0.33326710  0.56471576  0.00013029     0.82400
N12         N  0.33400156  0.57610962  0.02154821    -0.80100
C13         C  0.90300666  0.17519595  0.02359129     0.79900
N14         N  0.92661992  0.16956441  0.02445325    -0.78400
C15         C  0.93907523  0.16516430  0.00410842     0.82300
N16         N  0.92787473  0.16661413  0.98262799    -0.78400
C17         C  0.90428382  0.17250457  0.98128750     0.82400
N18         N  0.89196496  0.17683962  0.00194682    -0.80100
C19         C  0.71731189  0.34354584  0.97942400     0.79900
N20         N  0.71711522  0.36786608  0.98076239    -0.78400
C21         C  0.71571170  0.37915272  0.00232896     0.82300
N22         N  0.71428540  0.36594246  0.02265703    -0.78400
C23         C  0.71443559  0.34164786  0.02157841     0.82400
N24         N  0.71593360  0.33053559  0.99992224    -0.80100
C25         C  0.83274022  0.95475714  0.12825701     0.79900
N26         N  0.84336062  0.95363656  0.10640478    -0.78400
C27         C  0.84787356  0.97371195  0.09357474     0.82300
N28         N  0.84176921  0.99542060  0.10292858    -0.78400
C29         C  0.83151682  0.99695721  0.12493946     0.82400
N30         N  0.82693167  0.97661090  0.13742749    -0.80100
C31         C  0.64538575  0.99766070  0.30227669     0.79900
N32         N  0.62115125  0.99757309  0.30430699    -0.78400
C33         C  0.60883281  0.97666980  0.30541225     0.82300
N34         N  0.62103423  0.95556167  0.30448819    -0.78400
C35         C  0.64529959  0.95528657  0.30247259     0.82400
N36         N  0.65736139  0.97640319  0.30127288    -0.80100
C37         C  0.23323479  0.00169874  0.88005161     0.79900
N38         N  0.23479348  0.98027062  0.86859745    -0.78400
C39         C  0.23104846  0.95945735  0.88037914     0.82300
N40         N  0.22554710  0.96029218  0.90393276    -0.78400
C41         C  0.22353574  0.98146240  0.91572236     0.82400
N42         N  0.22780984  0.00225448  0.90381673    -0.80100
C43         C  0.40593930  0.95531990  0.68920958     0.79900
N44         N  0.39371484  0.97635012  0.69173863    -0.78400
C45         C  0.40557386  0.99763916  0.69227474     0.82300
N46         N  0.42984926  0.99761528  0.69017111    -0.78400
C47         C  0.44230608  0.97689995  0.68739313     0.82400
N48         N  0.43015150  0.95588531  0.68682998    -0.80100
C49         C  0.90837895  0.78285418  0.03023927     0.79900
N50         N  0.93058683  0.79234507  0.03247289    -0.78400
C51         C  0.94360905  0.79874873  0.01298114     0.82300
N52         N  0.93422090  0.79543996  0.99068291    -0.78400
C53         C  0.91185097  0.78605623  0.98811666     0.82400
N54         N  0.89915936  0.77985539  0.00792873    -0.80100
C55         C  0.71781789  0.59709160  0.02846181     0.79900
N56         N  0.71756063  0.57267218  0.02849770    -0.78400
C57         C  0.71846212  0.56023265  0.00743690     0.82300
N58         N  0.71914863  0.57254450  0.98651365    -0.78400
C59         C  0.71913605  0.59683305  0.98616189     0.82400
N60         N  0.71869311  0.60897261  0.00727655    -0.80100
C61         C  0.15054191  0.17836892  0.97450836     0.79900
N62         N  0.12775966  0.16991885  0.97385188    -0.78400
C63         C  0.11626587  0.16401658  0.99449670     0.82300
N64         N  0.12737297  0.16742512  0.01583308    -0.78400
C65         C  0.14983079  0.17652494  0.01661078     0.82400
N66         N  0.16134707  0.18191227  0.99594570    -0.80100
C67         C  0.33519312  0.35075086  0.97822356     0.79900
N68         N  0.34014067  0.37456962  0.97886249    -0.78400
C69         C  0.34271799  0.38612198  0.00016862     0.82300
N70         N  0.34016977  0.37368314  0.02085905    -0.78400
C71         C  0.33539918  0.34987437  0.02048193     0.82400
N72         N  0.33262934  0.33856447  0.99908429    -0.80100
C73         C  0.82348035  0.95239808  0.88668754     0.79900
N74         N  0.83074698  0.95359172  0.90982201    -0.78400
C75         C  0.83457472  0.97517805  0.92040722     0.82300
N76         N  0.83111570  0.99555471  0.90769782    -0.78400
C77         C  0.82405761  0.99451378  0.88448118     0.82400
N78         N  0.82029804  0.97285930  0.87409022    -0.80100
C79         C  0.65907356  0.99098299  0.69478072     0.79900
N80         N  0.63493728  0.99035585  0.69198690    -0.78400
C81         C  0.62311516  0.96919844  0.69037408     0.82300
N82         N  0.63582197  0.94847654  0.69171657    -0.78400
C83         C  0.65998754  0.94860133  0.69467606     0.82400
N84         N  0.67154418  0.97001711  0.69629600    -0.80100
C85         C  0.23775837  0.99233494  0.12684364     0.79900
N86         N  0.24608071  0.97325376  0.13947414    -0.78400
C87         C  0.24921639  0.95167022  0.12849404     0.82300
N88         N  0.24403534  0.94921030  0.10485723    -0.78400
C89         C  0.23529224  0.96808724  0.09242206     0.82400
N90         N  0.23227266  0.98947282  0.10342079    -0.80100
C91         C  0.39230245  0.95201503  0.31662234     0.79900
N92         N  0.41652976  0.95289406  0.31774334    -0.78400
C93         C  0.42841430  0.97398575  0.31659314     0.82300
N94         N  0.41571939  0.99467335  0.31433339    -0.78400
C95         C  0.39136081  0.99429820  0.31333270     0.82400
N96         N  0.37972444  0.97286405  0.31421664    -0.80100
C97         C  0.01156685  0.10455228  0.70120801     0.79900
N98         N  0.01398353  0.08109455  0.69555110    -0.78400
C99         C  0.03579251  0.07127084  0.69146425     0.82300
N100        N  0.05564238  0.08512337  0.69340252    -0.78400
C101        C  0.05344106  0.10880846  0.69871503     0.82400
N102        N  0.03142291  0.11836162  0.70266978    -0.80100
C103        C  0.00921035  0.27419714  0.62870946     0.79900
N104        N  0.03035594  0.26955653  0.63988760    -0.78400
C105        C  0.05115254  0.26881173  0.62717160     0.82300
N106        N  0.05057289  0.27250225  0.60312739    -0.78400
C107        C  0.02961011  0.27690110  0.59165500     0.82400
N108        N  0.00901149  0.27800282  0.60465645    -0.80100
C109        C  0.05048171  0.86323960  0.73932609     0.79900
N110        N  0.02940950  0.85267063  0.74479243    -0.78400
C111        C  0.00835076  0.86382465  0.74017349     0.82300
N112        N  0.00847524  0.88561627  0.72941722    -0.78400
C113        C  0.02956898  0.89622601  0.72352320     0.82400
N114        N  0.05052678  0.88503052  0.72870117    -0.80100
C115        C  0.01133273  0.66716941  0.63002227     0.79900
N116        N  0.01024613  0.66563358  0.60576435    -0.78400
C117        C  0.03042744  0.66371929  0.59240088     0.82300
N118        N  0.05202220  0.66385286  0.60345220    -0.78400
C119        C  0.05374258  0.66577981  0.62763416     0.82400
N120        N  0.03322551  0.66730824  0.64094138    -0.80100
C121        C  0.04884985  0.85134218  0.21248535     0.79900
N122        N  0.04863306  0.87417457  0.20420737    -0.78400
C123        C  0.02760009  0.88567060  0.20029701     0.82300
N124        N  0.00672126  0.87424787  0.20483518    -0.78400
C125        C  0.00650871  0.85137437  0.21293075     0.82400
N126        N  0.02774080  0.84001922  0.21676776    -0.80100
C127        C  0.04642863  0.67046649  0.37512152     0.79900
N128        N  0.04668131  0.66755162  0.39933915    -0.78400
C129        C  0.02599368  0.66833542  0.41221849     0.82300
N130        N  0.00498557  0.67243679  0.40081857    -0.78400
C131        C  0.00442360  0.67569575  0.37679613     0.82400
N132        N  0.02515560  0.67458150  0.36410029    -0.80100
C133        C  0.00177548  0.09737413  0.19757393     0.79900
N134        N  0.02200020  0.11048373  0.20060072    -0.78400
C135        C  0.04384227  0.10008458  0.19751472     0.82300
N136        N  0.04525386  0.07655850  0.19168257    -0.78400
C137        C  0.02518763  0.06339309  0.18853102     0.82400
N138        N  0.00345327  0.07380714  0.19182521    -0.80100
C139        C  0.04698860  0.27894920  0.37595361     0.79900
N140        N  0.04617718  0.28373383  0.39984324    -0.78400
C141        C  0.02475634  0.28537430  0.41137753     0.82300
N142        N  0.00423918  0.28277629  0.39861494    -0.78400
C143        C  0.00478509  0.27820185  0.37470679     0.82400
N144        N  0.02629636  0.27608140  0.36350518    -0.80100
C145        C  0.30700822  0.49298694  0.38119501     0.79900
N146        N  0.30402545  0.47202141  0.36924024    -0.78400
C147        C  0.31060089  0.45103693  0.37943464     0.82300
N148        N  0.32065317  0.45104336  0.40146810    -0.78400
C149        C  0.32428193  0.47194047  0.41333982     0.82400
N150        N  0.31718713  0.49282026  0.40321265    -0.80100
C151        C  0.14419514  0.45483126  0.18888894     0.79900
N152        N  0.15620699  0.47599675  0.19098626    -0.78400
C153        C  0.14460631  0.49735904  0.18809882     0.82300
N154        N  0.12077831  0.49735248  0.18287495    -0.78400
C155        C  0.10859465  0.47637713  0.18068554     0.82400
N156        N  0.12040475  0.45534590  0.18396172    -0.80100
O157        O  0.25679202  0.73435821  0.17877387    -0.86800
O158        O  0.22348519  0.69485021  0.30400861    -0.87000
O159        O  0.22363730  0.66990435  0.22422145    -0.88700
O160        O  0.20376987  0.74468559  0.23886768    -0.87400
O161        O  0.22184705  0.77744936  0.25605570    -0.87000
O162        O  0.25893048  0.64907190  0.22715130    -0.88400
O163        O  0.20336990  0.69762652  0.26825186    -0.86900
O164        O  0.22276272  0.71861168  0.19551503    -0.86400
Zr165      Zr  0.23160647  0.71097201  0.23770232     2.84300
O166        O  0.24102883  0.73123699  0.27333804    -1.08400
O167        O  0.26674200  0.70040783  0.21728681    -1.09200
C168        C  0.23457016  0.72788485  0.17791058     1.06300
C169        C  0.20443672  0.69337793  0.29098880     1.06200
C170        C  0.23629196  0.65047880  0.22249500     1.09200
C171        C  0.20410050  0.76678051  0.24589431     1.07000
H172        H  0.24569513  0.67231122  0.26649533     0.32500
O173        O  0.25464763  0.68640260  0.26251070    -1.29400
H174        H  0.24415166  0.75598769  0.21869590     0.32200
O175        O  0.25346239  0.74555916  0.22880209    -1.31100
O176        O  0.29624133  0.70822003  0.32799393    -0.86800
O177        O  0.33005894  0.74818383  0.20262218    -0.88300
O178        O  0.28524801  0.64580043  0.27265299    -0.86900
O179        O  0.24757533  0.77266072  0.30484297    -0.87000
O180        O  0.26846295  0.79535286  0.23321299    -0.86700
O181        O  0.30328021  0.66787580  0.20169145    -0.86500
O182        O  0.35033967  0.69917220  0.26662623    -0.86800
O183        O  0.32838678  0.77280208  0.28181501    -0.86300
O184        O  0.33106622  0.66618643  0.25155128    -0.87400
O185        O  0.29258534  0.79294468  0.28023372    -0.86500
O186        O  0.27052381  0.66455088  0.30614773    -0.86900
O187        O  0.30229091  0.70347803  0.18131422    -0.86600
O188        O  0.28365172  0.77720168  0.19945790    -0.86300
O189        O  0.24988307  0.73706316  0.32517995    -0.86700
O190        O  0.32989691  0.72449593  0.31097705    -0.87000
O191        O  0.34956204  0.74557814  0.23876593    -0.88300
Zr192      Zr  0.26482128  0.70681629  0.29765394     2.83100
Zr193      Zr  0.28870497  0.73497349  0.20862839     2.83500
Zr194      Zr  0.28978146  0.67614129  0.24226650     2.84100
Zr195      Zr  0.26276851  0.76572903  0.26439361     2.83400
Zr196      Zr  0.32126638  0.73141616  0.26867834     2.84200
O197        O  0.29800766  0.75572179  0.24397003    -1.08900
O198        O  0.30001494  0.69638896  0.27761271    -1.08400
C199        C  0.31813340  0.71567258  0.32884509     1.06200
C200        C  0.34880305  0.75007119  0.21609810     1.08900
C201        C  0.27777734  0.64586670  0.29451079     1.06400
C202        C  0.24510268  0.75964635  0.32378155     1.06800
C203        C  0.27631243  0.79564211  0.21145849     1.06400
C204        C  0.30595601  0.68063211  0.18264110     1.05900
C205        C  0.34976169  0.67715386  0.25951463     1.06300
C206        C  0.31521927  0.79176308  0.28461082     1.05900
H207        H  0.32641671  0.70585319  0.22485644     0.32500
O208        O  0.31197905  0.71046572  0.23321563    -1.30000
H209        H  0.29018427  0.75018109  0.30368457     0.32600
O210        O  0.28625251  0.74170853  0.28919685    -1.31400
C211        C  0.40445183  0.26299342  0.47442169     0.79900
N212        N  0.39406843  0.25745470  0.49571988    -0.78400
C213        C  0.40562704  0.26168296  0.51670555     0.82300
N214        N  0.42766227  0.27186219  0.51632674    -0.78400
C215        C  0.43826894  0.27742275  0.49521697     0.82400
N216        N  0.42676713  0.27258834  0.47435721    -0.80100
C217        C  0.22858621  0.10291800  0.47626107     0.79900
N218        N  0.22926351  0.11411854  0.49788177    -0.78400
C219        C  0.22824852  0.10137057  0.51856184     0.82300
N220        N  0.22666600  0.07705254  0.51738128    -0.78400
C221        C  0.22608309  0.06557159  0.49583420     0.82400
N222        N  0.22694774  0.07865171  0.47542872    -0.80100
O223        O  0.26901933  0.15179249  0.76714590    -0.86800
O224        O  0.30473709  0.27745978  0.80314257    -0.87000
O225        O  0.33448392  0.19936295  0.80066663    -0.88700
O226        O  0.26021628  0.21293832  0.82260964    -0.87400
O227        O  0.22698872  0.22828890  0.80378016    -0.87000
O228        O  0.35583232  0.20257888  0.76570271    -0.88400
O229        O  0.30355938  0.24139765  0.82274265    -0.86900
O230        O  0.28526931  0.16821988  0.80122391    -0.86400
Zr231      Zr  0.29265237  0.21081894  0.79342372     2.84300
O232        O  0.27171522  0.24608563  0.78428835    -1.08400
O233        O  0.30390589  0.19128225  0.75799799    -1.09200
C234        C  0.27588597  0.15072411  0.78918764     1.06300
C235        C  0.30632234  0.26438331  0.82214379     1.06200
C236        C  0.35410659  0.19804534  0.78829675     1.09200
C237        C  0.23803185  0.21958084  0.82216548     1.07000
H238        H  0.33088086  0.24082487  0.78007815     0.32500
O239        O  0.31701189  0.23630408  0.77081949    -1.29400
H240        H  0.24758535  0.19125324  0.78071772     0.32200
O241        O  0.25807891  0.20151555  0.77149544    -1.31100
O242        O  0.29627319  0.30034627  0.72903702    -0.86800
O243        O  0.25734378  0.17523096  0.69445759    -0.88300
O244        O  0.35697512  0.24961910  0.74018108    -0.86900
O245        O  0.22927209  0.27827504  0.77496383    -0.87000
O246        O  0.20744134  0.20698223  0.75513777    -0.86700
O247        O  0.33632578  0.17563832  0.72271930    -0.86500
O248        O  0.30589596  0.24071616  0.67551340    -0.86800
O249        O  0.23108719  0.25045308  0.69498516    -0.86300
O250        O  0.33912581  0.22467283  0.69372888    -0.87400
O251        O  0.21033736  0.24845467  0.73045842    -0.86500
O252        O  0.33738390  0.28171557  0.75684743    -0.86900
O253        O  0.30089866  0.15488284  0.72222830    -0.86600
O254        O  0.22640841  0.17495592  0.73743681    -0.86300
O255        O  0.26491678  0.29834782  0.77445604    -0.86700
O256        O  0.28117987  0.28331516  0.69483409    -0.87000
O257        O  0.26060801  0.21092445  0.67445619    -0.88300
Zr258      Zr  0.29566101  0.27089881  0.76094089     2.83100
Zr259      Zr  0.26944341  0.18198670  0.73598578     2.83500
Zr260      Zr  0.32831424  0.21675970  0.73532654     2.84100
Zr261      Zr  0.23760677  0.23705229  0.76225107     2.83400
Zr262      Zr  0.27292406  0.24138823  0.70360607     2.84200
O263        O  0.24886536  0.21706617  0.72712685    -1.08900
O264        O  0.30703867  0.25139054  0.72566205    -1.08400
C265        C  0.29039472  0.30095370  0.70668073     1.06200
C266        C  0.25595759  0.18823473  0.67538245     1.08900
C267        C  0.35633510  0.27124480  0.74864556     1.06400
C268        C  0.24207799  0.29736845  0.77766398     1.06800
C269        C  0.20757485  0.18633407  0.74472975     1.06400
C270        C  0.32381594  0.15647327  0.71943246     1.05900
C271        C  0.32795569  0.23386721  0.67568535     1.06300
C272        C  0.21162873  0.25117655  0.70754409     1.05900
H273        H  0.29920951  0.19820233  0.69859385     0.32500
O274        O  0.29430932  0.20655171  0.71303050    -1.30000
H275        H  0.25275318  0.27639195  0.73409652     0.32600
O276        O  0.26140498  0.26199141  0.73851242    -1.31400
C277        C  0.40808727  0.69605219  0.48447042     0.79900
N278        N  0.39738547  0.69873471  0.50609651    -0.78400
C279        C  0.40988319  0.69570713  0.52663122     0.82300
N280        N  0.43349011  0.69023333  0.52560211    -0.78400
C281        C  0.44458271  0.68790879  0.50411807     0.82400
N282        N  0.43185080  0.69076248  0.48362174    -0.80100
C283        C  0.21746440  0.84855294  0.52129344     0.79900
N284        N  0.21775983  0.87288967  0.52031857    -0.78400
C285        C  0.21683129  0.88462602  0.49907355     0.82300
N286        N  0.21548679  0.87166425  0.47851289    -0.78400
C287        C  0.21521549  0.84730576  0.47887953     0.82400
N288        N  0.21644318  0.83584810  0.50039430    -0.80100
C289        C  0.31432588  0.50080460  0.62331617     0.79900
N290        N  0.31335862  0.47978267  0.63543139    -0.78400
C291        C  0.31918850  0.45874662  0.62456379     0.82300
N292        N  0.32589517  0.45899652  0.60117180    -0.78400
C293        C  0.32681997  0.47984021  0.58883467     0.82400
N294        N  0.32112202  0.50071029  0.59999086    -0.80100
C295        C  0.15766612  0.45661098  0.79593377     0.79900
N296        N  0.13340760  0.45642344  0.79600432    -0.78400
C297        C  0.12077249  0.47716531  0.79602314     0.82300
N298        N  0.13255292  0.49844860  0.79600164    -0.78400
C299        C  0.15694978  0.49900198  0.79600951     0.82400
N300        N  0.16935420  0.47794381  0.79598596    -0.80100
O301        O  0.25433757  0.74632087  0.82557770    -0.86800
O302        O  0.22909328  0.70248499  0.69999177    -0.87000
O303        O  0.20541780  0.75299887  0.76166162    -0.88700
O304        O  0.22510791  0.67879761  0.77583160    -0.87400
O305        O  0.26077444  0.65824773  0.77672669    -0.87000
O306        O  0.22437635  0.78530679  0.74496772    -0.88400
O307        O  0.20741097  0.70663769  0.73467680    -0.86900
O308        O  0.22188170  0.72912156  0.80705639    -0.86400
Zr309      Zr  0.23404466  0.72044032  0.76604899     2.84300
O310        O  0.25878407  0.69520175  0.74359814    -1.08400
O311        O  0.25494238  0.75531744  0.77570930    -1.09200
C312        C  0.23220662  0.73963634  0.82488984     1.06300
C313        C  0.20936239  0.70160234  0.71218646     1.06200
C314        C  0.20577697  0.77459922  0.75347877     1.09200
C315        C  0.23770704  0.65948694  0.77818151     1.07000
H316        H  0.23140619  0.74472882  0.72154413     0.32500
O317        O  0.24522507  0.74042813  0.73095308    -1.29400
H318        H  0.26248573  0.70248925  0.80341787     0.32200
O319        O  0.26765564  0.71068511  0.78915296    -1.31100
O320        O  0.30367045  0.71579043  0.68152252    -0.86800
O321        O  0.32983357  0.75811076  0.80781006    -0.88300
O322        O  0.25671604  0.78171595  0.69857702    -0.86900
O323        O  0.29270867  0.65565186  0.73451553    -0.87000
O324        O  0.30338207  0.67927439  0.80796776    -0.86700
O325        O  0.26548534  0.80441150  0.77273691    -0.86500
O326        O  0.33268732  0.78204575  0.72605046    -0.86800
O327        O  0.35433590  0.71002757  0.74816644    -0.86300
O328        O  0.29700100  0.80248487  0.72714792    -0.87400
O329        O  0.33536142  0.67696545  0.76351894    -0.86500
O330        O  0.25798183  0.74523329  0.67951096    -0.86900
O331        O  0.28021863  0.78802099  0.80739302    -0.86600
O332        O  0.30170655  0.71570251  0.82707240    -0.86300
O333        O  0.27723020  0.67288339  0.70062918    -0.86700
O334        O  0.33656481  0.73182553  0.70033279    -0.87000
O335        O  0.35159178  0.75519537  0.77313125    -0.88300
Zr336      Zr  0.27017321  0.71518206  0.70881520     2.83100
Zr337      Zr  0.28865530  0.74600715  0.79860146     2.83500
Zr338      Zr  0.26640228  0.77507794  0.74075198     2.84100
Zr339      Zr  0.29277242  0.68593096  0.76612414     2.83400
Zr340      Zr  0.32501887  0.74138191  0.74119133     2.84200
O341        O  0.31334604  0.72110185  0.77585050    -1.08900
O342        O  0.29123797  0.75023306  0.71814970    -1.08400
C343        C  0.32573589  0.72243730  0.68220139     1.06200
C344        C  0.34970057  0.75932794  0.79589149     1.08900
C345        C  0.25460919  0.76817350  0.67984893     1.06400
C346        C  0.28606723  0.65501038  0.71234977     1.06800
C347        C  0.30511317  0.69278999  0.82675194     1.06400
C348        C  0.27094308  0.80532497  0.79514745     1.05900
C349        C  0.31970100  0.80111149  0.72313340     1.06300
C350        C  0.35417155  0.68867605  0.75696572     1.05900
H351        H  0.30874671  0.78098265  0.76825280     0.32500
O352        O  0.30035116  0.76651394  0.76391724    -1.30000
H353        H  0.31496518  0.69558102  0.72225863     0.32600
O354        O  0.30447296  0.70598189  0.73131301    -1.31400
C355        C  0.74941555  0.45588586  0.38201259     0.79900
N356        N  0.75071266  0.47781526  0.37158571    -0.78400
C357        C  0.74609917  0.49812416  0.38441338     0.82300
N358        N  0.74025226  0.49629252  0.40796491    -0.78400
C359        C  0.73902307  0.47448872  0.41857753     0.82400
N360        N  0.74351693  0.45451938  0.40551230    -0.80100
C361        C  0.89125684  0.49508133  0.17894571     0.79900
N362        N  0.88017220  0.47342458  0.18137681    -0.78400
C363        C  0.89281364  0.45259605  0.17884704     0.82300
N364        N  0.91653836  0.45368059  0.17376233    -0.78400
C365        C  0.92792283  0.47492285  0.17115511     0.82400
N366        N  0.91514002  0.49556491  0.17388523    -0.80100
C367        C  0.54809148  0.59519128  0.22826005     0.79900
N368        N  0.52789389  0.60720824  0.23449785    -0.78400
C369        C  0.50636465  0.59630533  0.23361809     0.82300
N370        N  0.50502137  0.57318407  0.22646648    -0.78400
C371        C  0.52496054  0.56078539  0.22010862     0.82400
N372        N  0.54667621  0.57179999  0.22137266    -0.80100
C373        C  0.54569670  0.78927097  0.13090684     0.79900
N374        N  0.54554083  0.79243349  0.10675173    -0.78400
C375        C  0.52460644  0.79278995  0.09441864     0.82300
N376        N  0.50363446  0.78984627  0.10633229    -0.78400
C377        C  0.50333703  0.78675059  0.13045726     0.82400
N378        N  0.52444137  0.78651837  0.14258647    -0.80100
O379        O  0.78846945  0.80052812  0.23105589    -0.86800
O380        O  0.74858627  0.67401063  0.20135992    -0.87000
O381        O  0.79451985  0.74047139  0.17864189    -0.88700
O382        O  0.72035127  0.75299543  0.20278324    -0.87400
O383        O  0.70118324  0.75123149  0.23918790    -0.87000
O384        O  0.82873863  0.72507472  0.19549678    -0.88400
O385        O  0.74803727  0.70967313  0.18092298    -0.86900
O386        O  0.77142203  0.78330912  0.19780006    -0.86400
Zr387      Zr  0.76243146  0.74134043  0.20819306     2.84300
O388        O  0.73971188  0.71702483  0.23340050    -1.08400
O389        O  0.79747657  0.75079044  0.22896200    -1.09200
C390        C  0.78184712  0.80087794  0.20889786     1.06300
C391        C  0.74504361  0.68667439  0.18238222     1.06200
C392        C  0.81687071  0.73444062  0.17793892     1.09200
C393        C  0.70161956  0.75505739  0.21639570     1.07000
H394        H  0.78862106  0.69792496  0.20257968     0.32500
O395        O  0.78441326  0.70642418  0.21703645    -1.29400
H396        H  0.74443069  0.77670102  0.23939268     0.32200
O397        O  0.75316311  0.76240254  0.24357330    -1.31100
O398        O  0.76180888  0.65294679  0.27444207    -0.86800
O399        O  0.80293941  0.77907328  0.30501370    -0.88300
O400        O  0.82728784  0.67454372  0.22448954    -0.86900
O401        O  0.70042653  0.70610493  0.26493822    -0.87000
O402        O  0.72241164  0.77929884  0.28135268    -0.86700
O403        O  0.84817893  0.74890524  0.23892551    -0.86500
O404        O  0.82841557  0.70031728  0.30406653    -0.86800
O405        O  0.75684979  0.71562996  0.32819672    -0.86300
O406        O  0.84786085  0.70329543  0.26801466    -0.87400
O407        O  0.72202590  0.72956883  0.31121091    -0.86500
O408        O  0.79184357  0.65422976  0.22731858    -0.86900
O409        O  0.83035894  0.78221052  0.25545205    -0.86600
O410        O  0.75761334  0.80008586  0.27805471    -0.86300
O411        O  0.71909533  0.67400225  0.24678894    -0.86700
O412        O  0.77871248  0.67131589  0.30710827    -0.87000
O413        O  0.80277955  0.74298969  0.32459894    -0.88300
Zr414      Zr  0.76142003  0.68217707  0.24216047     2.83100
Zr415      Zr  0.78861947  0.77219087  0.26399462     2.83500
Zr416      Zr  0.81958947  0.71615500  0.23743704     2.84100
Zr417      Zr  0.73016538  0.73786332  0.26878849     2.83400
Zr418      Zr  0.78715207  0.71289653  0.29724870     2.84200
O419        O  0.76544639  0.74799730  0.28903843    -1.08900
O420        O  0.79687895  0.69144302  0.26238240    -1.08400
C421        C  0.76899906  0.65324396  0.29643126     1.06200
C422        C  0.80662269  0.76575976  0.32362454     1.08900
C423        C  0.81447372  0.65530290  0.22246270     1.06400
C424        C  0.70063689  0.68492974  0.25549151     1.06800
C425        C  0.73495021  0.79872144  0.28282073     1.06400
C426        C  0.84834137  0.77099769  0.24596074     1.05900
C427        C  0.84739606  0.69938120  0.29080710     1.06300
C428        C  0.73456990  0.72166357  0.32903340     1.05900
H429        H  0.82480390  0.74189157  0.28093402     0.32500
O430        O  0.81034222  0.73738408  0.27268267    -1.30000
H431        H  0.74179049  0.69294492  0.28747918     0.32600
O432        O  0.75165905  0.70290303  0.27744548    -1.31400
C433        C  0.65933919  0.68310614  0.53043046     0.79900
N434        N  0.67018620  0.68700459  0.50894303    -0.78400
C435        C  0.65723874  0.68647787  0.48834756     0.82300
N436        N  0.63343327  0.68193682  0.48948386    -0.78400
C437        C  0.62237586  0.67827363  0.51078945     0.82400
N438        N  0.63543091  0.67900215  0.53116544    -0.80100
C439        C  0.81940135  0.84018425  0.52798087     0.79900
N440        N  0.82174143  0.82857233  0.50663455    -0.78400
C441        C  0.82220221  0.84114706  0.48582308     0.82300
N442        N  0.82003378  0.86544118  0.48654451    -0.78400
C443        C  0.81773734  0.87722740  0.50776950     0.82400
N444        N  0.81736379  0.86444213  0.52837942    -0.80100
C445        C  0.55218756  0.60416737  0.78996704     0.79900
N446        N  0.55154487  0.58063542  0.79615946    -0.78400
C447        C  0.53033968  0.56937949  0.79991481     0.82300
N448        N  0.50964826  0.58181491  0.79703899    -0.78400
C449        C  0.50998493  0.60531625  0.79096265     0.82400
N450        N  0.53129277  0.61627729  0.78730152    -0.80100
C451        C  0.51003271  0.77858298  0.87984386     0.79900
N452        N  0.51020156  0.78501486  0.90335313    -0.78400
C453        C  0.53112250  0.78827122  0.91523824     0.82300
N454        N  0.55214682  0.78502086  0.90338431    -0.78400
C455        C  0.55250949  0.77891985  0.87975786     0.82400
N456        N  0.53129135  0.77558040  0.86810677    -0.80100
C457        C  0.74027375  0.45432003  0.63066687     0.79900
N458        N  0.73538507  0.45483130  0.60686936    -0.78400
C459        C  0.73062922  0.47579478  0.59564520     0.82300
N460        N  0.73063776  0.49643436  0.60842538    -0.78400
C461        C  0.73546000  0.49644814  0.63220838     0.82400
N462        N  0.74034205  0.47527787  0.64326617    -0.80100
C463        C  0.90449101  0.49126303  0.80720303     0.79900
N464        N  0.89168469  0.47054412  0.80614344    -0.78400
C465        C  0.90330127  0.44902620  0.80564520     0.82300
N466        N  0.92765949  0.44840407  0.80550801    -0.78400
C467        C  0.94054061  0.46898196  0.80599257     0.82400
N468        N  0.92870511  0.49017251  0.80690604    -0.80100
O469        O  0.80715061  0.73835719  0.83531500    -0.86800
O470        O  0.83812354  0.69439435  0.70937245    -0.87000
O471        O  0.84071525  0.67266054  0.78711385    -0.88700
O472        O  0.85973453  0.74711340  0.77153338    -0.87400
O473        O  0.83948648  0.77877232  0.75487776    -0.87000
O474        O  0.80537948  0.65158015  0.78643905    -0.88400
O475        O  0.85951857  0.70215761  0.74368848    -0.86900
O476        O  0.84161108  0.72482258  0.81700803    -0.86400
Zr477      Zr  0.83157678  0.71392278  0.77551186     2.84300
O478        O  0.82067172  0.73309526  0.73991294    -1.08400
O479        O  0.79716442  0.70348741  0.79757713    -1.09200
C480        C  0.82984873  0.73350776  0.83512157     1.06300
C481        C  0.85776430  0.69575381  0.72146555     1.06200
C482        C  0.82827016  0.65326866  0.78935601     1.09200
C483        C  0.85838507  0.76887129  0.76370757     1.07000
H484        H  0.81691693  0.67348030  0.74774563     0.32500
O485        O  0.80824853  0.68768602  0.75223975    -1.29400
H486        H  0.81849831  0.75892539  0.79349268     0.32200
O487        O  0.80883977  0.74817634  0.78406756    -1.31100
O488        O  0.76574094  0.70815633  0.68779619    -0.86800
O489        O  0.73272166  0.75080531  0.81254016    -0.88300
O490        O  0.76963800  0.64922185  0.74183946    -0.86900
O491        O  0.81148255  0.77344404  0.70712321    -0.87000
O492        O  0.79480147  0.79760427  0.77960225    -0.86700
O493        O  0.76023748  0.67160784  0.81457408    -0.86500
O494        O  0.71201122  0.70040636  0.75182182    -0.86800
O495        O  0.73251011  0.77296565  0.73167737    -0.86300
O496        O  0.73107362  0.66910347  0.77060844    -0.87400
O497        O  0.76779465  0.79387203  0.73170860    -0.86500
O498        O  0.78564193  0.66597768  0.70800035    -0.86900
O499        O  0.75935540  0.70781470  0.83409281    -0.86600
O500        O  0.78125261  0.78002881  0.81425943    -0.86300
O501        O  0.81048195  0.73679866  0.68857080    -0.86700
O502        O  0.73116393  0.72236767  0.70462200    -0.87000
O503        O  0.71253191  0.74623809  0.77693700    -0.88300
Zr504      Zr  0.79711588  0.70716118  0.71719243     2.83100
Zr505      Zr  0.77450192  0.73804657  0.80599410     2.83500
Zr506      Zr  0.77341546  0.67842618  0.77375576     2.84100
Zr507      Zr  0.79820479  0.76745889  0.74843623     2.83400
Zr508      Zr  0.74062161  0.73242214  0.74645619     2.84200
O509        O  0.76371211  0.75793643  0.77036763    -1.08900
O510        O  0.76252656  0.69758376  0.73832805    -1.08400
C511        C  0.74344442  0.71377629  0.68680548     1.06200
C512        C  0.71351232  0.75132396  0.79951676     1.08900
C513        C  0.77502690  0.64890316  0.71937954     1.06400
C514        C  0.81387666  0.75965695  0.68859169     1.06800
C515        C  0.78893441  0.79794881  0.80195830     1.06400
C516        C  0.75599852  0.68487221  0.83308825     1.05900
C517        C  0.71237283  0.67980079  0.76219550     1.06300
C518        C  0.74509669  0.79201552  0.72777884     1.05900
H519        H  0.73733873  0.70883494  0.79120921     0.32500
O520        O  0.75144811  0.71303403  0.78216348    -1.30000
H521        H  0.77052328  0.74992494  0.71025056     0.32600
O522        O  0.77502685  0.74203122  0.72499928    -1.31400
C523        C  0.50475245  0.34899759  0.23803685     0.79900
N524        N  0.52504958  0.33920725  0.24702702    -0.78400
C525        C  0.54545542  0.35219737  0.24847630     0.82300
N526        N  0.54542056  0.37518406  0.24072570    -0.78400
C527        C  0.52521312  0.38515788  0.23165445     0.82400
N528        N  0.50491548  0.37195394  0.23015209    -0.80100
C529        C  0.54467313  0.17336330  0.13034588     0.79900
N530        N  0.52334053  0.17410002  0.14202306    -0.78400
C531        C  0.50265533  0.16982926  0.13005253     0.82300
N532        N  0.50339173  0.16459028  0.10629785    -0.78400
C533        C  0.52459149  0.16370821  0.09435736     0.82400
N534        N  0.54517590  0.16822923  0.10651314    -0.80100
O535        O  0.79497197  0.21100711  0.17689623    -0.86800
O536        O  0.82903087  0.24887075  0.30268712    -0.87000
O537        O  0.82707102  0.27598992  0.22300523    -0.88700
O538        O  0.84886671  0.20222708  0.23819525    -0.87400
O539        O  0.83102214  0.16870272  0.25384097    -0.87000
O540        O  0.79153528  0.29648975  0.22610254    -0.88400
O541        O  0.84880679  0.24749446  0.26664313    -0.86900
O542        O  0.82903653  0.22569466  0.19482191    -0.86400
Zr543      Zr  0.81986276  0.23460642  0.23647006     2.84300
O544        O  0.81068707  0.21359915  0.27160978    -1.08400
O545        O  0.78475623  0.24415826  0.21557168    -1.09200
C546        C  0.81734534  0.21700629  0.17687078     1.06300
C547        C  0.84803531  0.25075571  0.28958528     1.06200
C548        C  0.81413495  0.29526530  0.22144381     1.09200
C549        C  0.84902192  0.18009231  0.24480301     1.07000
H550        H  0.80546365  0.27325007  0.26537130     0.32500
O551        O  0.79665435  0.25904460  0.26125910    -1.29400
H552        H  0.80813810  0.18950209  0.21729677     0.32200
O553        O  0.79841014  0.19962607  0.22740148    -1.31100
O554        O  0.75544489  0.23609659  0.32620558    -0.86800
O555        O  0.72061620  0.19777782  0.20186116    -0.88300
O556        O  0.76434647  0.29814112  0.27260500    -0.86900
O557        O  0.80297016  0.17125983  0.30349924    -0.87000
O558        O  0.78683427  0.14901095  0.23042758    -0.86700
O559        O  0.74706753  0.27483728  0.19919822    -0.86500
O560        O  0.70252374  0.24691574  0.26597906    -0.86800
O561        O  0.72259220  0.17253562  0.27808391    -0.86300
O562        O  0.72026936  0.27950556  0.24849197    -0.87400
O563        O  0.75776072  0.15135005  0.27548076    -0.86500
O564        O  0.78087778  0.28050710  0.30581244    -0.86900
O565        O  0.74773221  0.23890181  0.17935071    -0.86600
O566        O  0.77080014  0.16702028  0.19710049    -0.86300
O567        O  0.80137889  0.20712557  0.32375552    -0.86700
O568        O  0.72169633  0.22026909  0.30904552    -0.87000
O569        O  0.70153986  0.20149641  0.23814235    -0.88300
Zr570      Zr  0.78724211  0.23807476  0.29633701     2.83100
Zr571      Zr  0.76305674  0.20905439  0.20697773     2.83500
Zr572      Zr  0.76151694  0.26870052  0.24043240     2.84100
Zr573      Zr  0.78927695  0.17868221  0.26247569     2.83400
Zr574      Zr  0.73099196  0.21380575  0.26703970     2.84200
O575        O  0.75380743  0.18856251  0.24230961    -1.08900
O576        O  0.75218243  0.24862836  0.27605708    -1.08400
C577        C  0.73338479  0.22918274  0.32686741     1.06200
C578        C  0.70170825  0.19746876  0.21543793     1.08900
C579        C  0.77209742  0.29868492  0.29441128     1.06400
C580        C  0.80515795  0.18426684  0.32262955     1.06800
C581        C  0.77998163  0.14895559  0.20832679     1.06400
C582        C  0.74348634  0.26165091  0.18037007     1.05900
C583        C  0.70242469  0.26875140  0.25838760     1.06300
C584        C  0.73499699  0.15301697  0.27947920     1.05900
H585        H  0.72550284  0.23873866  0.22342384     0.32500
O586        O  0.73997907  0.23408915  0.23154906    -1.30000
H587        H  0.76160143  0.19456567  0.30173345     0.32600
O588        O  0.76584917  0.20309806  0.28741504    -1.31400
C589        C  0.51241793  0.35762796  0.77502046     0.79900
N590        N  0.53343479  0.34603453  0.77098949    -0.78400
C591        C  0.55460575  0.35704947  0.77548598     0.82300
N592        N  0.55466061  0.37986909  0.78408103    -0.78400
C593        C  0.53369269  0.39144973  0.78871961     0.82400
N594        N  0.51269464  0.38024693  0.78398274    -0.80100
C595        C  0.50924783  0.17614848  0.87841633     0.79900
N596        N  0.53061002  0.17940372  0.86720160    -0.78400
C597        C  0.55158050  0.17729953  0.87936331     0.82300
N598        N  0.55082566  0.17162477  0.90305342    -0.78400
C599        C  0.52957442  0.16808635  0.91445240     0.82400
N600        N  0.50885235  0.17060589  0.90205237    -0.80100
C601        C  0.64894892  0.26310786  0.52410779     0.79900
N602        N  0.65894067  0.25819018  0.50243296    -0.78400
C603        C  0.64676433  0.26232085  0.48172770     0.82300
N604        N  0.62419052  0.27136805  0.48303733    -0.78400
C605        C  0.61399319  0.27634232  0.50456417     0.82400
N606        N  0.62640248  0.27214466  0.52491686    -0.80100
C607        C  0.82762522  0.09348513  0.47773254     0.79900
N608        N  0.82672819  0.06913682  0.47919594    -0.78400
C609        C  0.82623857  0.05791826  0.50082242     0.82300
N610        N  0.82676199  0.07135032  0.52115242    -0.78400
C611        C  0.82793912  0.09562753  0.52010370     0.82400
N612        N  0.82812198  0.10656079  0.49837931    -0.80100
O613        O  0.80408827  0.20521129  0.82292134    -0.86800
O614        O  0.83121306  0.24978286  0.69850877    -0.87000
O615        O  0.85500019  0.19905623  0.75661718    -0.88700
O616        O  0.83412343  0.27135866  0.77906472    -0.87400
O617        O  0.79856368  0.29177539  0.77776279    -0.87000
O618        O  0.83525097  0.16655853  0.74094284    -0.88400
O619        O  0.85255262  0.24768131  0.73359982    -0.86900
O620        O  0.83789094  0.21948866  0.80455162    -0.86400
Zr621      Zr  0.82610387  0.23089563  0.76400074     2.84300
O622        O  0.80156323  0.25648980  0.74171238    -1.08400
O623        O  0.80485602  0.19593476  0.77298134    -1.09200
C624        C  0.82659069  0.21031642  0.82254553     1.06300
C625        C  0.85057910  0.25228240  0.71101343     1.06200
C626        C  0.85430205  0.17759144  0.74793835     1.09200
C627        C  0.82120249  0.29045610  0.78198955     1.07000
H628        H  0.82826550  0.20728243  0.71893509     0.32500
O629        O  0.81443561  0.21137365  0.72857589    -1.29400
H630        H  0.79706809  0.24818862  0.80163865     0.32200
O631        O  0.79224988  0.24025130  0.78706844    -1.31100
O632        O  0.75702581  0.23689169  0.67810603    -0.86800
O633        O  0.72929150  0.19574133  0.80456889    -0.88300
O634        O  0.80321154  0.17046232  0.69561419    -0.86900
O635        O  0.76616672  0.29563682  0.73388938    -0.87000
O636        O  0.75499221  0.27063119  0.80613018    -0.86700
O637        O  0.79379793  0.14696625  0.77011916    -0.86500
O638        O  0.72621660  0.16998620  0.72313769    -0.86800
O639        O  0.70576095  0.24397499  0.74209611    -0.86300
O640        O  0.76200501  0.14970512  0.72376173    -0.87400
O641        O  0.72567133  0.27518916  0.76009763    -0.86500
O642        O  0.80168623  0.20687498  0.67686403    -0.86900
O643        O  0.77861293  0.16344615  0.80451222    -0.86600
O644        O  0.75758486  0.23440713  0.82504150    -0.86300
O645        O  0.78152857  0.27927954  0.69928693    -0.86700
O646        O  0.72398455  0.22046254  0.69641976    -0.87000
O647        O  0.70734023  0.19858525  0.76989733    -0.88300
Zr648      Zr  0.78997199  0.23692326  0.70646948     2.83100
Zr649      Zr  0.77075854  0.20528245  0.79540261     2.83500
Zr650      Zr  0.79310708  0.17652055  0.73787100     2.84100
Zr651      Zr  0.76734869  0.26493731  0.76444895     2.83400
Zr652      Zr  0.73435761  0.21085136  0.73774309     2.84200
O653        O  0.74597692  0.23027160  0.77313599    -1.08900
O654        O  0.76869928  0.20182879  0.71532374    -1.08400
C655        C  0.73486104  0.23037839  0.67857914     1.06200
C656        C  0.70948035  0.19511544  0.79269360     1.08900
C657        C  0.80500941  0.18396473  0.67688787     1.06400
C658        C  0.77206347  0.29658898  0.71156750     1.06800
C659        C  0.75310179  0.25708555  0.82479769     1.06400
C660        C  0.78794517  0.14591468  0.79251684     1.05900
C661        C  0.73921431  0.15092218  0.72005576     1.06300
C662        C  0.70684545  0.26530137  0.75122505     1.05900
H663        H  0.75025375  0.17092223  0.76473316     0.32500
O664        O  0.75874474  0.18526652  0.76048701    -1.30000
H665        H  0.74555330  0.25631272  0.72003423     0.32600
O666        O  0.75579517  0.24576375  0.72905839    -1.31400
O667        O  0.24871846  0.21225305  0.17359450    -0.86800
O668        O  0.22160334  0.25254006  0.30008633    -0.87000
O669        O  0.19693834  0.20544535  0.23549162    -0.88700
O670        O  0.21925608  0.27871499  0.22122276    -0.87400
O671        O  0.25513786  0.29845734  0.22234912    -0.87000
O672        O  0.21446080  0.17165268  0.25093228    -0.88400
O673        O  0.19988224  0.25099531  0.26518273    -0.86900
O674        O  0.21549490  0.22866824  0.19142692    -0.86400
Zr675      Zr  0.22635785  0.23712516  0.23311472     2.84300
O676        O  0.25118832  0.26088397  0.25697001    -1.08400
O677        O  0.24662130  0.20178428  0.22287882    -1.09200
C678        C  0.22663315  0.21901676  0.17344934     1.06300
C679        C  0.20204928  0.25469530  0.28796411     1.06200
C680        C  0.19641183  0.18345553  0.24250061     1.09200
C681        C  0.23222327  0.29777916  0.21901272     1.07000
H682        H  0.22254641  0.21170193  0.27684678     0.32500
O683        O  0.23667958  0.21587193  0.26781458    -1.29400
H684        H  0.25616196  0.25473183  0.19664724     0.32200
O685        O  0.26067837  0.24614579  0.21093829    -1.31100
O686        O  0.29460377  0.23642121  0.32009803    -0.86800
O687        O  0.32241507  0.19790346  0.19305997    -0.88300
O688        O  0.24532464  0.17398041  0.29883986    -0.86900
O689        O  0.28584215  0.29898834  0.26662727    -0.87000
O690        O  0.29793305  0.27605488  0.19343836    -0.86700
O691        O  0.25739057  0.15200457  0.22465006    -0.86500
O692        O  0.32182370  0.17076682  0.27356982    -0.86800
O693        O  0.34612680  0.24383843  0.25507416    -0.86300
O694        O  0.28581010  0.15132972  0.27145632    -0.87400
O695        O  0.32802150  0.27690770  0.23875225    -0.86500
O696        O  0.24923549  0.20925982  0.31962497    -0.86900
O697        O  0.27363784  0.16945388  0.19120530    -0.86600
O698        O  0.29533083  0.24035393  0.17319362    -0.86300
O699        O  0.27175779  0.28083802  0.30073755    -0.86700
O700        O  0.32739900  0.21983038  0.30177209    -0.87000
O701        O  0.34261918  0.19845064  0.22868599    -0.88300
Zr702      Zr  0.26214007  0.23944128  0.29126796     2.83100
Zr703      Zr  0.28149219  0.21073121  0.20162678     2.83500
Zr704      Zr  0.25665631  0.18055498  0.25737420     2.84100
Zr705      Zr  0.28562258  0.26943869  0.23483798     2.83400
Zr706      Zr  0.31622648  0.21254830  0.26012295     2.84200
O707        O  0.30619182  0.23407626  0.22550112    -1.08900
O708        O  0.28166399  0.20365269  0.28159765    -1.08400
C709        C  0.31654303  0.22899282  0.32011450     1.06200
C710        C  0.34148591  0.19512581  0.20583345     1.08900
C711        C  0.24476043  0.18662860  0.31822421     1.06400
C712        C  0.28019970  0.29884323  0.28902513     1.06800
C713        C  0.29985953  0.26297172  0.17437285     1.06400
C714        C  0.26412737  0.15182749  0.20253937     1.05900
C715        C  0.30848978  0.15190011  0.27597355     1.06300
C716        C  0.34642269  0.26538526  0.24659373     1.05900
H717        H  0.29984876  0.17438098  0.23137656     0.32500
O718        O  0.29163727  0.18896346  0.23590734    -1.30000
H719        H  0.30713527  0.25820983  0.27915205     0.32600
O720        O  0.29658540  0.24846807  0.26957325    -1.31400
C721        C  0.82758236  0.11002071  0.54250861    -0.20200
C722        C  0.83899432  0.10185457  0.56355133     0.36000
C723        C  0.83620670  0.11482779  0.58501210    -0.26200
C724        C  0.82232654  0.13580941  0.58593043     0.02400
C725        C  0.81169850  0.14452132  0.56472665     0.27300
C726        C  0.81464322  0.13165243  0.54317969    -0.25300
N727        N  0.85347889  0.08050604  0.56303694    -0.82700
H728        H  0.84475656  0.10846546  0.60121630     0.13100
C729        C  0.81846393  0.14796565  0.60939659     0.02400
N730        N  0.79740028  0.16599601  0.56530797    -0.81300
H731        H  0.80594891  0.13802004  0.52705718     0.17900
C732        C  0.82542567  0.17191072  0.61240054    -0.26100
C733        C  0.82151944  0.18413612  0.63418384     0.35900
C734        C  0.81048848  0.17199982  0.65356372    -0.20100
C735        C  0.80404096  0.14781513  0.65054912    -0.25400
C736        C  0.80779335  0.13574578  0.62872014     0.27300
H737        H  0.83390345  0.18112933  0.59759830     0.13000
N738        N  0.82932502  0.20854818  0.63673162    -0.82700
H739        H  0.79548272  0.13835243  0.66514390     0.17900
N740        N  0.80052217  0.11118028  0.62598679    -0.81300
H741        H  0.83980514  0.21359317  0.62205635     0.33500
H742        H  0.81407809  0.21944735  0.63616731     0.38000
H743        H  0.79311583  0.10471924  0.64191495     0.33500
H744        H  0.78692197  0.11067303  0.61314025     0.30200
H745        H  0.79089559  0.16999009  0.54821882     0.33500
H746        H  0.78245185  0.16264984  0.57608594     0.30200
H747        H  0.86811142  0.08381648  0.55182051     0.38100
H748        H  0.86047006  0.07690411  0.58002147     0.33500
C749        C  0.66155215  0.25767328  0.54694184    -0.20200
C750        C  0.68212583  0.24273035  0.54814450     0.36000
C751        C  0.69204805  0.23729628  0.57059646    -0.26200
C752        C  0.68216906  0.24662708  0.59172122     0.02400
C753        C  0.66171115  0.26130614  0.59072536     0.27300
C754        C  0.65172614  0.26680304  0.56840550    -0.25300
N755        N  0.69289634  0.23297592  0.52681912    -0.82700
H756        H  0.70796930  0.22618366  0.57164332     0.13100
C757        C  0.69453239  0.24229190  0.61462174     0.02400
N758        N  0.65114341  0.27047633  0.61243001    -0.81300
H759        H  0.63603766  0.27825358  0.56790689     0.17900
C760        C  0.70548529  0.26167264  0.62616340    -0.26100
C761        C  0.71840447  0.25851110  0.64734200     0.35900
C762        C  0.72064541  0.23512584  0.65700696    -0.20100
C763        C  0.70923866  0.21579422  0.64568506    -0.25400
C764        C  0.69620018  0.21915141  0.62446338     0.27300
H765        H  0.70407817  0.27946396  0.61852796     0.13000
N766        N  0.72868581  0.27943416  0.65843180    -0.82700
H767        H  0.71088529  0.19798636  0.65321738     0.17900
N768        N  0.68480709  0.19923604  0.61276055    -0.81300
H769        H  0.71468906  0.29131893  0.66235667     0.33500
H770        H  0.73657347  0.27553159  0.67486219     0.38000
H771        H  0.68792213  0.18339609  0.62223190     0.33500
H772        H  0.66632448  0.20228517  0.61325837     0.30200
H773        H  0.63617991  0.28110129  0.60859455     0.33500
H774        H  0.64490273  0.25582786  0.62223903     0.30200
H775        H  0.70132058  0.24713265  0.51798454     0.38100
H776        H  0.70648278  0.22080170  0.53114560     0.33500
C777        C  0.57517293  0.18021484  0.86691250    -0.20200
C778        C  0.57708257  0.18796718  0.84276598     0.36000
C779        C  0.59966858  0.18841372  0.83157522    -0.26200
C780        C  0.62052662  0.18209842  0.84397905     0.02400
C781        C  0.61892349  0.17530047  0.86819614     0.27300
C782        C  0.59635101  0.17439073  0.87936493    -0.25300
N783        N  0.55630977  0.19568686  0.82966263    -0.82700
H784        H  0.60113215  0.19426252  0.81313286     0.13100
C785        C  0.64398817  0.18390915  0.83155311     0.02400
N786        N  0.64022008  0.16912553  0.88127755    -0.81300
H787        H  0.59538450  0.16873006  0.89787620     0.17900
C788        C  0.66106311  0.20015192  0.84018746    -0.26100
C789        C  0.68267524  0.20390033  0.82786518     0.35900
C790        C  0.68734224  0.19094821  0.80653614    -0.20100
C791        C  0.67036987  0.17455163  0.79800151    -0.25400
C792        C  0.64883980  0.17065801  0.81048827     0.27300
H793        H  0.65714973  0.21049122  0.85620687     0.13000
N794        N  0.69949770  0.22141374  0.83645161    -0.82700
H795        H  0.67404861  0.16461674  0.78167431     0.17900
N796        N  0.63189212  0.15328361  0.80194844    -0.81300
H797        H  0.69346695  0.22919426  0.85244460     0.33500
H798        H  0.70024853  0.23519666  0.82382491     0.38000
H799        H  0.63814271  0.14510421  0.78624054     0.33500
H800        H  0.63071114  0.13978983  0.81484612     0.30200
H801        H  0.63602790  0.16471785  0.89898485     0.33500
H802        H  0.64748389  0.15370116  0.87339361     0.30200
H803        H  0.55020345  0.21155807  0.83764704     0.38100
H804        H  0.56081893  0.20002527  0.81201188     0.33500
C805        C  0.68490981  0.27987554  0.75246159    -0.20200
C806        C  0.66852181  0.28129528  0.73330300     0.36000
C807        C  0.64813100  0.29596183  0.73576727    -0.26200
C808        C  0.64410543  0.30905724  0.75690034     0.02400
C809        C  0.66058318  0.30780684  0.77588361     0.27300
C810        C  0.68092526  0.29335832  0.77338421    -0.25300
N811        N  0.67262811  0.26796337  0.71157277    -0.82700
H812        H  0.63510078  0.29687476  0.72142599     0.13100
C813        C  0.62116152  0.32159909  0.76029087     0.02400
N814        N  0.65604536  0.32040440  0.79797489    -0.81300
H815        H  0.69352404  0.29218320  0.78810351     0.17900
C816        C  0.60195640  0.30854806  0.76957504    -0.26100
C817        C  0.58004241  0.31972701  0.77473237     0.35900
C818        C  0.57739754  0.34453372  0.77041748    -0.20100
C819        C  0.59669134  0.35754630  0.76087598    -0.25400
C820        C  0.61861323  0.34624177  0.75562769     0.27300
H821        H  0.60428561  0.28960878  0.77320829     0.13000
N822        N  0.56071158  0.30608758  0.78483071    -0.82700
H823        H  0.59454772  0.37650156  0.75726019     0.17900
N824        N  0.63806309  0.35949903  0.74524273    -0.81300
H825        H  0.56559175  0.28807234  0.78662351     0.33500
H826        H  0.55760460  0.31261458  0.80214727     0.38000
H827        H  0.63302426  0.37734074  0.74247453     0.33500
H828        H  0.65210153  0.35981962  0.75758978     0.30200
H829        H  0.66955725  0.31686842  0.81044312     0.33500
H830        H  0.65679203  0.33875786  0.79443916     0.30200
H831        H  0.68823240  0.27457933  0.70364040     0.38100
H832        H  0.65875319  0.27094408  0.69936654     0.33500
C833        C  0.72028511  0.23228460  0.34968925    -0.20200
C834        C  0.72504902  0.25202836  0.36477412     0.36000
C835        C  0.71176503  0.25521786  0.38577364    -0.26200
C836        C  0.69378393  0.23903797  0.39213344     0.02400
C837        C  0.68894469  0.21912737  0.37737012     0.27300
C838        C  0.70215384  0.21601658  0.35607651    -0.25300
N839        N  0.74290054  0.26931864  0.35850901    -0.82700
H840        H  0.71544903  0.27051798  0.39720302     0.13100
C841        C  0.68092929  0.24307185  0.41487761     0.02400
N842        N  0.67083656  0.20218795  0.38417415    -0.81300
H843        H  0.69848511  0.20076376  0.34459244     0.17900
C844        C  0.65745038  0.25187340  0.41457291    -0.26100
C845        C  0.64576843  0.25858957  0.43593942     0.35900
C846        C  0.65788413  0.25594691  0.45818681    -0.20100
C847        C  0.68131654  0.24649374  0.45811620    -0.25400
C848        C  0.69290043  0.24009138  0.43675417     0.27300
H849        H  0.64854306  0.25427818  0.39750262     0.13000
N850        N  0.62189297  0.26826582  0.43486684    -0.82700
H851        H  0.69088760  0.24416589  0.47477803     0.17900
N852        N  0.71696826  0.23083023  0.43706995    -0.81300
H853        H  0.61522573  0.26745692  0.41738395     0.33500
H854        H  0.62297296  0.28647424  0.43922215     0.38000
H855        H  0.72341007  0.22986902  0.45461956     0.33500
H856        H  0.71643151  0.21325047  0.43053622     0.30200
H857        H  0.66957047  0.18849510  0.37140056     0.33500
H858        H  0.67636049  0.19410775  0.40012328     0.30200
H859        H  0.75544563  0.27006098  0.37237911     0.38100
H860        H  0.73462791  0.28610233  0.35724434     0.33500
C861        C  0.81134937  0.17186316  0.34534507    -0.20200
C862        C  0.80054861  0.17876195  0.36728528     0.36000
C863        C  0.80575985  0.16589310  0.38825608    -0.26200
C864        C  0.82143810  0.14618945  0.38794594     0.02400
C865        C  0.83248892  0.13944624  0.36614801     0.27300
C866        C  0.82717267  0.15221100  0.34503715    -0.25300
N867        N  0.78363893  0.19826661  0.36809027    -0.82700
H868        H  0.79697188  0.17083304  0.40489015     0.13100
C869        C  0.82512741  0.13230306  0.41046562     0.02400
N870        N  0.84908733  0.11970814  0.36557945    -0.81300
H871        H  0.83550429  0.14688251  0.32828776     0.17900
C872        C  0.81956740  0.10780231  0.41093556    -0.26100
C873        C  0.82059612  0.09451421  0.43235006     0.35900
C874        C  0.82741067  0.10603081  0.45401363    -0.20100
C875        C  0.83368034  0.13046890  0.45319886    -0.25400
C876        C  0.83270082  0.14362592  0.43175626     0.27300
H877        H  0.81356659  0.09916518  0.39460184     0.13000
N878        N  0.81415800  0.06958681  0.43206785    -0.82700
H879        H  0.83935527  0.13950547  0.46942217     0.17900
N880        N  0.83929032  0.16851920  0.43151530    -0.81300
H881        H  0.81068133  0.06375590  0.41459227     0.33500
H882        H  0.79807819  0.06789669  0.44153005     0.38000
H883        H  0.84436598  0.17423450  0.44862721     0.33500
H884        H  0.85439061  0.17018848  0.42054781     0.30200
H885        H  0.85564916  0.11702494  0.34821481     0.33500
H886        H  0.86376464  0.12439889  0.37620459     0.30200
H887        H  0.77762092  0.20125401  0.38560199     0.38100
H888        H  0.76865154  0.19315755  0.35810463     0.33500
C889        C  0.52488460  0.15956824  0.06802244    -0.20200
C890        C  0.54526730  0.15045336  0.05590159     0.36000
C891        C  0.54506948  0.14881136  0.03074815    -0.26200
C892        C  0.52526501  0.15663058  0.01739097     0.02400
C893        C  0.50474319  0.16520624  0.02945516     0.27300
C894        C  0.50458945  0.16609181  0.05460779    -0.25300
N895        N  0.56619429  0.14321459  0.06903482    -0.82700
H896        H  0.56074939  0.14208944  0.02139371     0.13100
C897        C  0.52718743  0.15801209  0.99085990     0.02400
N898        N  0.48457705  0.17405013  0.01610636    -0.81300
H899        H  0.48891904  0.17317251  0.06369297     0.17900
C900        C  0.51027611  0.14646000  0.97626886    -0.26100
C901        C  0.51081566  0.14904048  0.95117496     0.35900
C902        C  0.52900402  0.16307423  0.94051072    -0.20100
C903        C  0.54633383  0.17384674  0.95513344    -0.25400
C904        C  0.54523962  0.17201336  0.98016112     0.27300
H905        H  0.49641858  0.13572306  0.98454371     0.13000
N906        N  0.49294943  0.13759431  0.93658540    -0.82700
H907        H  0.56010048  0.18485202  0.94707382     0.17900
N908        N  0.56178324  0.18518851  0.99484868    -0.81300
H909        H  0.48074361  0.12824529  0.94724490     0.33500
H910        H  0.50163681  0.12485730  0.92584853     0.38000
H911        H  0.57387974  0.19471568  0.98423161     0.33500
H912        H  0.55190784  0.19795129  0.00448402     0.30200
H913        H  0.47096211  0.17982078  0.02767080     0.33500
H914        H  0.49023493  0.18917909  0.00667652     0.30200
H915        H  0.56149908  0.12841785  0.07945418     0.38100
H916        H  0.57973180  0.13745890  0.05737072     0.33500
C917        C  0.47938331  0.17135890  0.14249723    -0.20200
C918        C  0.47440377  0.18981047  0.15919661     0.36000
C919        C  0.45158171  0.19115751  0.16967844    -0.26200
C920        C  0.43375309  0.17457879  0.16368627     0.02400
C921        C  0.43886263  0.15577340  0.14760418     0.27300
C922        C  0.46161317  0.15448439  0.13693724    -0.25300
N923        N  0.49218904  0.20753817  0.16483472    -0.82700
H924        H  0.44742350  0.20554357  0.18213106     0.13100
C925        C  0.40961789  0.17766638  0.17403128     0.02400
N926        N  0.42093504  0.13811711  0.14226294    -0.81300
H927        H  0.46556882  0.14017843  0.12433872     0.17900
C928        C  0.39071114  0.18491949  0.15921772    -0.26100
C929        C  0.36807133  0.19052736  0.16885033     0.35900
C930        C  0.36422359  0.18802690  0.19384143    -0.20100
C931        C  0.38321144  0.17991843  0.20833724    -0.25400
C932        C  0.40585316  0.17498054  0.19874277     0.27300
H933        H  0.39397544  0.18717517  0.14021013     0.13000
N934        N  0.34947256  0.19947426  0.15344856    -0.82700
H935        H  0.38059609  0.17775102  0.22744082     0.17900
N936        N  0.42520362  0.16760441  0.21403340    -0.81300
H937        H  0.35516126  0.19951522  0.13558557     0.33500
H938        H  0.34640180  0.21739912  0.15810286     0.38000
H939        H  0.41958794  0.16688969  0.23190008     0.33500
H940        H  0.42998673  0.15013614  0.20910936     0.30200
H941        H  0.42758276  0.12545053  0.13008073     0.33500
H942        H  0.41726906  0.12887649  0.15811413     0.30200
H943        H  0.49550875  0.21733233  0.14924723     0.38100
H944        H  0.48562037  0.21973885  0.17752833     0.33500
C945        C  0.56714382  0.17771434  0.14366110    -0.20200
C946        C  0.58690068  0.18916185  0.13283650     0.36000
C947        C  0.60835937  0.19144750  0.14567013    -0.26200
C948        C  0.61031768  0.18306041  0.16921641     0.02400
C949        C  0.59026789  0.17275830  0.18053542     0.27300
C950        C  0.56887156  0.17010687  0.16758488    -0.25300
N951        N  0.58497605  0.19887061  0.10909036    -0.82700
H952        H  0.62364375  0.20003685  0.13737975     0.13100
C953        C  0.63353792  0.18555867  0.18170047     0.02400
N954        N  0.59179798  0.16486556  0.20498459    -0.81300
H955        H  0.55364633  0.16158512  0.17604228     0.17900
C956        C  0.63506336  0.20061590  0.20173439    -0.26100
C957        C  0.65716819  0.20504073  0.21281047     0.35900
C958        C  0.67807568  0.19325092  0.20420190    -0.20100
C959        C  0.67640667  0.17806811  0.18421574    -0.25400
C960        C  0.65436284  0.17427317  0.17273811     0.27300
H961        H  0.61907822  0.20970830  0.20811126     0.13000
N962        N  0.65857607  0.22224788  0.23203776    -0.82700
H963        H  0.69236396  0.16921379  0.17748056     0.17900
N964        N  0.65302953  0.15925110  0.15180698    -0.81300
H965        H  0.64163490  0.22921134  0.23612829     0.33500
H966        H  0.66881815  0.23665794  0.22592777     0.38000
H967        H  0.66997097  0.15257555  0.14729339     0.33500
H968        H  0.64240342  0.14447562  0.15608886     0.30200
H969        H  0.57537822  0.15793846  0.21070133     0.33500
H970        H  0.60415284  0.15076484  0.20560601     0.30200
H971        H  0.57230738  0.21270612  0.10972581     0.38100
H972        H  0.60114460  0.20667863  0.10382299     0.33500
C973        C  0.48240906  0.33517579  0.23794599    -0.20200
C974        C  0.47640256  0.32020659  0.25738166     0.36000
C975        C  0.45451683  0.30810280  0.25713822    -0.26200
C976        C  0.43864052  0.31062037  0.23793000     0.02400
C977        C  0.44480185  0.32508726  0.21823747     0.27300
C978        C  0.46661825  0.33747538  0.21854896    -0.25300
N979        N  0.49213096  0.31797074  0.27764412    -0.82700
H980        H  0.44946956  0.29714449  0.27231653     0.13100
C981        C  0.41513362  0.29883343  0.23943186     0.02400
N982        N  0.42888310  0.32707303  0.19811002    -0.81300
H983        H  0.47141239  0.34881174  0.20357033     0.17900
C984        C  0.39441908  0.31301007  0.23922132    -0.26100
C985        C  0.37173732  0.30273749  0.24204990     0.35900
C986        C  0.36985915  0.27757870  0.24507744    -0.20100
C987        C  0.39080062  0.26352574  0.24546023    -0.25400
C988        C  0.41339494  0.27388457  0.24247123     0.27300
H989        H  0.39604040  0.33226265  0.23729320     0.13000
N990        N  0.35079177  0.31783655  0.24206959    -0.82700
H991        H  0.38958240  0.24426518  0.24749725     0.17900
N992        N  0.43460018  0.25918826  0.24222882    -0.81300
H993        H  0.35538739  0.33570715  0.23892436     0.33500
H994        H  0.34333575  0.31725693  0.25925797     0.38000
H995        H  0.43023303  0.24116748  0.24479224     0.33500
H996        H  0.44219477  0.26041008  0.22514030     0.30200
H997        H  0.43611180  0.33840881  0.18510973     0.33500
H998        H  0.42756327  0.31009425  0.19023347     0.30200
H999        H  0.49289429  0.33470277  0.28610560     0.38100
H1000       H  0.48513254  0.30600331  0.29019488     0.33500
C1001       C  0.56788572  0.34068097  0.25644724    -0.20200
C1002       C  0.58766954  0.35415912  0.26455557     0.36000
C1003       C  0.60981423  0.34282176  0.26781062    -0.26200
C1004       C  0.61234976  0.31824546  0.26342470     0.02400
C1005       C  0.59232577  0.30437623  0.25710533     0.27300
C1006       C  0.57017705  0.31571059  0.25391771    -0.25300
N1007       N  0.58544298  0.37929794  0.26936734    -0.82700
H1008       H  0.62524050  0.35332559  0.27310163     0.13100
C1009       C  0.63635086  0.30744738  0.26333962     0.02400
N1010       N  0.59483543  0.27902462  0.25299404    -0.81300
H1011       H  0.55503574  0.30512052  0.24805301     0.17900
C1012       C  0.64257883  0.29134383  0.28144168    -0.26100
C1013       C  0.66439485  0.27887504  0.28055034     0.35900
C1014       C  0.67999918  0.28250844  0.26093668    -0.20100
C1015       C  0.67397514  0.29929926  0.24323073    -0.25400
C1016       C  0.65214734  0.31170613  0.24415508     0.27300
H1017       H  0.63021115  0.28831691  0.29610233     0.13000
N1018       N  0.67078885  0.26266998  0.29949016    -0.82700
H1019       H  0.68594552  0.30213554  0.22820367     0.17900
N1020       N  0.64562812  0.32813019  0.22543567    -0.81300
H1021       H  0.65729377  0.26206681  0.31248449     0.33500
H1022       H  0.68599543  0.26955614  0.30795857     0.38000
H1023       H  0.65935450  0.32937943  0.21273575     0.33500
H1024       H  0.63078897  0.32100960  0.21652127     0.30200
H1025       H  0.57831640  0.27141265  0.24860618     0.33500
H1026       H  0.60592556  0.27664767  0.23804958     0.30200
H1027       H  0.59767500  0.38837543  0.25850957     0.38100
H1028       H  0.59017074  0.38232229  0.28724410     0.33500
C1029       C  0.88981626  0.42626884  0.80516098    -0.20200
C1030       C  0.89652611  0.40702902  0.82010171     0.36000
C1031       C  0.88496092  0.38484256  0.81770687    -0.26200
C1032       C  0.86678221  0.38152862  0.80075853     0.02400
C1033       C  0.85945571  0.40098159  0.78635521     0.27300
C1034       C  0.87095913  0.42327052  0.78884221    -0.25300
N1035       N  0.91495672  0.41019062  0.83778342    -0.82700
H1036       H  0.89015879  0.37000193  0.82906167     0.13100
C1037       C  0.85576003  0.35750673  0.79806553     0.02400
N1038       N  0.84075512  0.39784247  0.76894188    -0.81300
H1039       H  0.86582131  0.43807545  0.77741352     0.17900
C1040       C  0.83119433  0.35489690  0.80226200    -0.26100
C1041       C  0.81976517  0.33280436  0.79868799     0.35900
C1042       C  0.83315052  0.31294131  0.78992022    -0.20100
C1043       C  0.85805818  0.31532335  0.78704222    -0.25400
C1044       C  0.86950233  0.33738174  0.79110396     0.27300
H1045       H  0.82089039  0.37025681  0.80834284     0.13000
N1046       N  0.79462802  0.33058170  0.80392762    -0.82700
H1047       H  0.86856261  0.30020442  0.78074347     0.17900
N1048       N  0.89492198  0.33958454  0.78762173    -0.81300
H1049       H  0.78748864  0.34690747  0.80985800     0.33500
H1050       H  0.79290571  0.31856252  0.81815896     0.38000
H1051       H  0.90244577  0.32307465  0.78278005     0.33500
H1052       H  0.89768595  0.35114980  0.77319161     0.30200
H1053       H  0.83747540  0.41387093  0.75985223     0.33500
H1054       H  0.84687935  0.38551287  0.75615615     0.30200
H1055       H  0.90878401  0.42289653  0.85017400     0.38100
H1056       H  0.91775220  0.39432303  0.84730148     0.33500
C1057       C  0.84106582  0.63085003  0.79490724    -0.20200
C1058       C  0.86157642  0.62373306  0.78189625     0.36000
C1059       C  0.87162237  0.60102494  0.78588990    -0.26200
C1060       C  0.86157766  0.58543379  0.80277446     0.02400
C1061       C  0.84196192  0.59305514  0.81682522     0.27300
C1062       C  0.83151594  0.61550305  0.81229950    -0.25300
N1063       N  0.87157249  0.63903341  0.76391798    -0.82700
H1064       H  0.88697312  0.59529955  0.77538691     0.13100
C1065       C  0.87151201  0.56100712  0.80506734     0.02400
N1066       N  0.83332460  0.57843793  0.83616474    -0.81300
H1067       H  0.81592795  0.62115619  0.82247929     0.17900
C1068       C  0.89308480  0.55776890  0.81731570    -0.26100
C1069       C  0.90380949  0.53509108  0.81867494     0.35900
C1070       C  0.89260666  0.51506988  0.80782752    -0.20100
C1071       C  0.87072552  0.51834760  0.79590039    -0.25400
C1072       C  0.86031044  0.54125439  0.79394952     0.27300
H1073       H  0.90184526  0.57302398  0.82555447     0.13000
N1074       N  0.92610703  0.53255027  0.83111145    -0.82700
H1075       H  0.86231468  0.50322267  0.78710400     0.17900
N1076       N  0.83932681  0.54478964  0.77943716    -0.81300
H1077       H  0.92369700  0.53851857  0.84873110     0.33500
H1078       H  0.93867892  0.54369505  0.82288368     0.38000
H1079       H  0.83394252  0.52860923  0.77166015     0.33500
H1080       H  0.82527794  0.55030384  0.79052525     0.30200
H1081       H  0.81919977  0.58701821  0.84508925     0.33500
H1082       H  0.82632001  0.56264285  0.82903691     0.30200
H1083       H  0.87138038  0.62981167  0.74757114     0.38100
H1084       H  0.88943734  0.64235713  0.76839854     0.33500
C1085       C  0.74544332  0.43091493  0.64232199    -0.20200
C1086       C  0.75751009  0.42919836  0.66456005     0.36000
C1087       C  0.76139025  0.40652587  0.67475009    -0.26200
C1088       C  0.75393451  0.38562327  0.66306439     0.02400
C1089       C  0.74227635  0.38707359  0.64082990     0.27300
C1090       C  0.73815226  0.40968397  0.63066787    -0.25300
N1091       N  0.76614465  0.45028918  0.67658201    -0.82700
H1092       H  0.77046457  0.40506634  0.69183943     0.13100
C1093       C  0.75835666  0.36231299  0.67457916     0.02400
N1094       N  0.73424512  0.36563168  0.62895629    -0.81300
H1095       H  0.72891422  0.41066113  0.61364545     0.17900
C1096       C  0.74105169  0.35308406  0.69016915    -0.26100
C1097       C  0.74507483  0.33149623  0.70237053     0.35900
C1098       C  0.76698006  0.31914272  0.69891403    -0.20100
C1099       C  0.78404333  0.32821485  0.68291160    -0.25400
C1100       C  0.77997427  0.34980653  0.67074377     0.27300
H1101       H  0.72443430  0.36283563  0.69285071     0.13000
N1102       N  0.72694732  0.32194359  0.71797605    -0.82700
H1103       H  0.80075277  0.31862816  0.68023513     0.17900
N1104       N  0.79786399  0.35937155  0.65492032    -0.81300
H1105       H  0.71197147  0.33324016  0.71851214     0.33500
H1106       H  0.72118086  0.30571083  0.71059949     0.38000
H1107       H  0.81295516  0.34822987  0.65450881     0.33500
H1108       H  0.79080841  0.35928483  0.63759004     0.30200
H1109       H  0.72575317  0.36983286  0.61281650     0.33500
H1110       H  0.74934081  0.35543013  0.62447782     0.30200
H1111       H  0.77972943  0.45755916  0.66595992     0.38100
H1112       H  0.77404393  0.44584421  0.69295568     0.33500
C1113       C  0.73713403  0.51971885  0.64511704    -0.20200
C1114       C  0.73537597  0.52151487  0.67032954     0.36000
C1115       C  0.73949658  0.54373916  0.68152270    -0.26200
C1116       C  0.74465238  0.56427465  0.66804192     0.02400
C1117       C  0.74479515  0.56287281  0.64285353     0.27300
C1118       C  0.74123501  0.54063659  0.63168344    -0.25300
N1119       N  0.72942682  0.50089902  0.68448493    -0.82700
H1120       H  0.73921187  0.54496346  0.70090191     0.13100
C1121       C  0.75158857  0.58667703  0.68053635     0.02400
N1122       N  0.74890362  0.58400671  0.62876160    -0.81300
H1123       H  0.74225115  0.53965462  0.61233274     0.17900
C1124       C  0.77406605  0.59672622  0.67557769    -0.26100
C1125       C  0.78200641  0.61733396  0.68761825     0.35900
C1126       C  0.76740713  0.62765105  0.70555814    -0.20100
C1127       C  0.74481889  0.61765030  0.71044597    -0.25400
C1128       C  0.73660442  0.59745917  0.69784727     0.27300
H1129       H  0.78559044  0.58825653  0.66237487     0.13000
N1130       N  0.80519899  0.62715240  0.68235008    -0.82700
H1131       H  0.73337832  0.62587986  0.72388789     0.17900
N1132       N  0.71313584  0.58793936  0.70242279    -0.81300
H1133       H  0.81445741  0.61611600  0.67029337     0.33500
H1134       H  0.80250698  0.64337341  0.67342888     0.38000
H1135       H  0.70442024  0.59791763  0.71574515     0.33500
H1136       H  0.70306898  0.58995943  0.68677065     0.30200
H1137       H  0.74858894  0.57990536  0.61046724     0.33500
H1138       H  0.73465003  0.59580484  0.63193504     0.30200
H1139       H  0.71201299  0.49579981  0.67989947     0.38100
H1140       H  0.72903285  0.50530554  0.70270775     0.33500
C1141       C  0.57608315  0.77563617  0.86731060    -0.20200
C1142       C  0.57862138  0.77698712  0.84208233     0.36000
C1143       C  0.60131958  0.77325266  0.83154566    -0.26200
C1144       C  0.62167744  0.76860662  0.84555529     0.02400
C1145       C  0.61931197  0.76767266  0.87067081     0.27300
C1146       C  0.59667093  0.77125298  0.88123724    -0.25300
N1147       N  0.55836621  0.78255398  0.82721687    -0.82700
H1148       H  0.60324559  0.77423165  0.81224991     0.13100
C1149       C  0.64527249  0.76431796  0.83366143     0.02400
N1150       N  0.63987349  0.76270783  0.88534422    -0.81300
H1151       H  0.59510043  0.77018149  0.90054934     0.17900
C1152       C  0.66485959  0.77924991  0.83891587    -0.26100
C1153       C  0.68738080  0.77558452  0.82795538     0.35900
C1154       C  0.69030164  0.75663617  0.81139494    -0.20100
C1155       C  0.67068411  0.74181638  0.80611053    -0.25400
C1156       C  0.64833756  0.74525746  0.81724807     0.27300
H1157       H  0.66247084  0.79393430  0.85146022     0.13000
N1158       N  0.70709812  0.79123037  0.83323632    -0.82700
H1159       H  0.67299859  0.72703610  0.79364124     0.17900
N1160       N  0.62885256  0.72919109  0.81230079    -0.81300
H1161       H  0.70198311  0.80425622  0.84577057     0.33500
H1162       H  0.71143069  0.80034994  0.81748340     0.38000
H1163       H  0.63403705  0.71611384  0.79984106     0.33500
H1164       H  0.62484523  0.72014912  0.82818143     0.30200
H1165       H  0.63518121  0.76273239  0.90348857     0.33500
H1166       H  0.64573569  0.74534922  0.88125447     0.30200
H1167       H  0.56323859  0.78246313  0.80911783     0.38100
H1168       H  0.55304353  0.80009378  0.83127246     0.33500
C1169       C  0.53365780  0.41672926  0.79693070    -0.20200
C1170       C  0.51445391  0.42653351  0.81037090     0.36000
C1171       C  0.51392926  0.45128737  0.81517139    -0.26200
C1172       C  0.53192499  0.46647272  0.80646898     0.02400
C1173       C  0.55159672  0.45647604  0.79392263     0.27300
C1174       C  0.55243488  0.43169857  0.78969251    -0.25300
N1175       N  0.49547233  0.41141667  0.81890119    -0.82700
H1176       H  0.49913040  0.45888379  0.82526242     0.13100
C1177       C  0.52938226  0.49291795  0.80890737     0.02400
N1178       N  0.57017219  0.47164774  0.78460328    -0.81300
H1179       H  0.56721604  0.42427537  0.77944830     0.17900
C1180       C  0.54858153  0.50630147  0.81803931    -0.26100
C1181       C  0.54898333  0.53139258  0.81623498     0.35900
C1182       C  0.52958066  0.54338402  0.80527249    -0.20100
C1183       C  0.50937854  0.53013185  0.79826968    -0.25400
C1184       C  0.50907254  0.50503421  0.79988869     0.27300
H1185       H  0.56375491  0.49700376  0.82579458     0.13000
N1186       N  0.56913188  0.54463012  0.82522720    -0.82700
H1187       H  0.49419376  0.53923647  0.79032040     0.17900
N1188       N  0.48859246  0.49184363  0.79156232    -0.81300
H1189       H  0.58192321  0.53306329  0.83254261     0.33500
H1190       H  0.56296846  0.55546954  0.83927673     0.38000
H1191       H  0.47505313  0.50349296  0.78588641     0.33500
H1192       H  0.49387919  0.48190020  0.77653906     0.30200
H1193       H  0.58342103  0.46148010  0.77601155     0.33500
H1194       H  0.56249492  0.48260850  0.77152350     0.30200
H1195       H  0.50290452  0.39947010  0.83123817     0.38100
H1196       H  0.48261576  0.42148418  0.82818449     0.33500
C1197       C  0.57544738  0.61618667  0.78548145    -0.20200
C1198       C  0.57734411  0.64139359  0.78299001     0.36000
C1199       C  0.59973325  0.65173575  0.77868303    -0.26200
C1200       C  0.62027764  0.63748355  0.77698229     0.02400
C1201       C  0.61869249  0.61248617  0.77937506     0.27300
C1202       C  0.59630081  0.60205171  0.78359356    -0.25300
N1203       N  0.55680075  0.65669934  0.78518905    -0.82700
H1204       H  0.60114979  0.67103300  0.77696369     0.13100
C1205       C  0.64358267  0.64888452  0.77304879     0.02400
N1206       N  0.63989876  0.59788160  0.77752974    -0.81300
H1207       H  0.59521666  0.58275545  0.78527329     0.17900
C1208       C  0.66043756  0.64843577  0.79156800    -0.26100
C1209       C  0.68326289  0.65815199  0.78828000     0.35900
C1210       C  0.68917440  0.66827434  0.76589402    -0.20100
C1211       C  0.67209792  0.66910305  0.74752439    -0.25400
C1212       C  0.64929038  0.65929629  0.75084902     0.27300
H1213       H  0.65565537  0.64055914  0.80863879     0.13000
N1214       N  0.70020620  0.65828664  0.80768790    -0.82700
H1215       H  0.67668111  0.67719972  0.73050274     0.17900
N1216       N  0.63198451  0.65962487  0.73180698    -0.81300
H1217       H  0.69306125  0.64987008  0.82279559     0.33500
H1218       H  0.70317253  0.67615751  0.81253148     0.38000
H1219       H  0.63904356  0.66804797  0.71666291     0.33500
H1220       H  0.62863106  0.64185012  0.72688665     0.30200
H1221       H  0.63571368  0.57978197  0.77980199     0.33500
H1222       H  0.64658988  0.59963196  0.76011425     0.30200
H1223       H  0.55989473  0.66882718  0.79916619     0.38100
H1224       H  0.55507025  0.66644956  0.76931661     0.33500
C1225       C  0.81628580  0.90380887  0.50838911    -0.20200
C1226       C  0.82642550  0.91727149  0.52728766     0.36000
C1227       C  0.82581304  0.94241455  0.52657085    -0.26200
C1228       C  0.81505087  0.95455417  0.50741592     0.02400
C1229       C  0.80395990  0.94118145  0.48901185     0.27300
C1230       C  0.80502061  0.91597576  0.48949130    -0.25300
N1231       N  0.83823504  0.90556193  0.54679736    -0.82700
H1232       H  0.83450476  0.95251327  0.54070217     0.13100
C1233       C  0.81720082  0.98110627  0.50591541     0.02400
N1234       N  0.79166558  0.95329396  0.46993581    -0.81300
H1235       H  0.79684826  0.90577457  0.47512689     0.17900
C1236       C  0.82867562  0.99114007  0.48596053    -0.26100
C1237       C  0.83215940  0.01596756  0.48412155     0.35900
C1238       C  0.82379946  0.03137769  0.50243609    -0.20100
C1239       C  0.81262714  0.02125515  0.52265091    -0.25400
C1240       C  0.80913682  0.99632769  0.52452277     0.27300
H1241       H  0.83546932  0.97952973  0.47187953     0.13000
N1242       N  0.84496454  0.02529776  0.46397561    -0.82700
H1243       H  0.80616386  0.03285332  0.53688344     0.17900
N1244       N  0.79724532  0.98644424  0.54509314    -0.81300
H1245       H  0.86192549  0.01729767  0.46358816     0.33500
H1246       H  0.83587710  0.02023266  0.44840514     0.38000
H1247       H  0.79259308  0.00000039  0.55723966     0.33500
H1248       H  0.78121717  0.97879584  0.53920169     0.30200
H1249       H  0.78456908  0.94091534  0.45777875     0.33500
H1250       H  0.77710330  0.96241792  0.47751243     0.30200
H1251       H  0.82977866  0.91084467  0.56270015     0.38100
H1252       H  0.85595531  0.91154233  0.54738596     0.33500
C1253       C  0.81970267  0.82692264  0.55085527    -0.20200
C1254       C  0.83473370  0.80688337  0.55441238     0.36000
C1255       C  0.83589872  0.79617693  0.57709060    -0.26200
C1256       C  0.82174810  0.80471597  0.59608849     0.02400
C1257       C  0.80581781  0.82394079  0.59229149     0.27300
C1258       C  0.80537180  0.83523438  0.56987214    -0.25300
N1259       N  0.84917181  0.79763410  0.53524029    -0.82700
H1260       H  0.84777028  0.78103358  0.57986194     0.13100
C1261       C  0.82232263  0.79234591  0.61945204     0.02400
N1262       N  0.78983049  0.83152971  0.61109190    -0.81300
H1263       H  0.79344319  0.85032424  0.56708336     0.17900
C1264       C  0.83014669  0.80464107  0.63997972    -0.26100
C1265       C  0.82883588  0.79396988  0.66272571     0.35900
C1266       C  0.81916699  0.77071749  0.66500343    -0.20100
C1267       C  0.81196248  0.75835038  0.64419185    -0.25400
C1268       C  0.81338605  0.76892010  0.62152157     0.27300
H1269       H  0.83704698  0.82269749  0.63832030     0.13000
N1270       N  0.83657094  0.80705426  0.68345222    -0.82700
H1271       H  0.80411934  0.74068465  0.64562042     0.17900
N1272       N  0.80503330  0.75626693  0.60065516    -0.81300
H1273       H  0.85270195  0.81566813  0.67943813     0.33500
H1274       H  0.82376503  0.82030210  0.68700696     0.38000
H1275       H  0.79902829  0.73914928  0.60523435     0.33500
H1276       H  0.79017948  0.76554581  0.59400024     0.30200
H1277       H  0.77910094  0.84577324  0.60533482     0.33500
H1278       H  0.77823323  0.81728904  0.61466480     0.30200
H1279       H  0.84459438  0.77965936  0.53258553     0.38100
H1280       H  0.86710488  0.79828318  0.54055376     0.33500
C1281       C  0.73137150  0.70986806  0.66332603    -0.20200
C1282       C  0.74269084  0.69690893  0.64434732     0.36000
C1283       C  0.73040848  0.69323530  0.62283936    -0.26200
C1284       C  0.70734425  0.70221136  0.61954334     0.02400
C1285       C  0.69595251  0.71517522  0.63799575     0.27300
C1286       C  0.70803309  0.71882008  0.65978341    -0.25300
N1287       N  0.76643614  0.68712554  0.64683395    -0.82700
H1288       H  0.73887847  0.68322530  0.60843227     0.13100
C1289       C  0.69531690  0.69727772  0.59662362     0.02400
N1290       N  0.67221188  0.72454756  0.63446265    -0.81300
H1291       H  0.69917853  0.72877915  0.67396309     0.17900
C1292       C  0.67641672  0.68090051  0.59614728    -0.26100
C1293       C  0.66511606  0.67494583  0.57452459     0.35900
C1294       C  0.67272489  0.68604304  0.55305440    -0.20100
C1295       C  0.69225138  0.70184008  0.55357915    -0.25400
C1296       C  0.70355958  0.70766633  0.57521519     0.27300
H1297       H  0.67069943  0.67255177  0.61269658     0.13000
N1298       N  0.64613771  0.65757823  0.57430523    -0.82700
H1299       H  0.69816474  0.71039291  0.53721838     0.17900
N1300       N  0.72313198  0.72434949  0.57565722    -0.81300
H1301       H  0.64270240  0.65131269  0.59160612     0.33500
H1302       H  0.65207557  0.64283751  0.56428619     0.38000
H1303       H  0.72710135  0.73026994  0.55834839     0.33500
H1304       H  0.71751169  0.73941037  0.58537897     0.30200
H1305       H  0.66627714  0.73355839  0.64983201     0.33500
H1306       H  0.67314530  0.73731300  0.62082372     0.30200
H1307       H  0.77844286  0.70142415  0.64570831     0.38100
H1308       H  0.77063045  0.67573984  0.63249383     0.33500
C1309       C  0.72253396  0.71812979  0.35223384    -0.20200
C1310       C  0.73254055  0.72712453  0.37363715     0.36000
C1311       C  0.72203419  0.72113068  0.39569897    -0.26200
C1312       C  0.70214253  0.70584201  0.39677212     0.02400
C1313       C  0.69244107  0.69650384  0.37532670     0.27300
C1314       C  0.70248877  0.70312624  0.35323382    -0.25300
N1315       N  0.75336699  0.74221344  0.37283153    -0.82700
H1316       H  0.72931503  0.72847705  0.41213539     0.13100
C1317       C  0.69103739  0.70053300  0.42036195     0.02400
N1318       N  0.67280403  0.67990751  0.37613864    -0.81300
H1319       H  0.69536468  0.69568733  0.33677780     0.17900
C1320       C  0.66678482  0.70606409  0.42381937    -0.26100
C1321       C  0.65549252  0.70208804  0.44590714     0.35900
C1322       C  0.66866055  0.69175806  0.46494233    -0.20100
C1323       C  0.69307104  0.68652344  0.46156676    -0.25400
C1324       C  0.70440986  0.69081321  0.43947183     0.27300
H1325       H  0.65674276  0.71410214  0.40930133     0.13000
N1326       N  0.63091643  0.70920428  0.44919919    -0.82700
H1327       H  0.70327681  0.67874923  0.47610806     0.17900
N1328       N  0.72936711  0.68519784  0.43630874    -0.81300
H1329       H  0.63065155  0.72314352  0.46177824     0.33500
H1330       H  0.62383485  0.71621808  0.43336315     0.38000
H1331       H  0.73663674  0.67834409  0.45213081     0.33500
H1332       H  0.73061849  0.67157855  0.42344845     0.30200
H1333       H  0.66787112  0.67466015  0.35883310     0.33500
H1334       H  0.67884151  0.66446270  0.38483539     0.30200
H1335       H  0.74857431  0.75802372  0.36402978     0.38100
H1336       H  0.75864956  0.74711812  0.39013204     0.33500
C1337       C  0.81476740  0.77751748  0.34605955    -0.20200
C1338       C  0.82974338  0.76552149  0.36261307     0.36000
C1339       C  0.83336299  0.77549883  0.38551860    -0.26200
C1340       C  0.82287138  0.79746983  0.39191760     0.02400
C1341       C  0.80940303  0.81027787  0.37480445     0.27300
C1342       C  0.80554197  0.80019225  0.35203412    -0.25300
N1343       N  0.84121200  0.74331860  0.35608460    -0.82700
H1344       H  0.84423996  0.76606475  0.39851841     0.13100
C1345       C  0.82537151  0.80674591  0.41674413     0.02400
N1346       N  0.79907797  0.83315326  0.38089771    -0.81300
H1347       H  0.79425732  0.80955359  0.33933511     0.17900
C1348       C  0.83678604  0.82875347  0.42048472    -0.26100
C1349       C  0.83691062  0.83960900  0.44315602     0.35900
C1350       C  0.82497747  0.82860570  0.46248500    -0.20100
C1351       C  0.81496450  0.80573739  0.45913746    -0.25400
C1352       C  0.81504820  0.79466617  0.43639583     0.27300
H1353       H  0.84533659  0.83775298  0.40558551     0.13000
N1354       N  0.84950787  0.86168350  0.44654409    -0.82700
H1355       H  0.80623728  0.79691046  0.47403174     0.17900
N1356       N  0.80417828  0.77156247  0.43303619    -0.81300
H1357       H  0.86743688  0.85886506  0.44183779     0.33500
H1358       H  0.84231817  0.87438079  0.43483413     0.38000
H1359       H  0.79753904  0.76505310  0.44927913     0.33500
H1360       H  0.78944193  0.77377357  0.42171241     0.30200
H1361       H  0.78985956  0.84032092  0.36627608     0.33500
H1362       H  0.78637943  0.83034410  0.39437991     0.30200
H1363       H  0.85302955  0.74693166  0.34200038     0.38100
H1364       H  0.85164660  0.73689792  0.37023561     0.33500
C1365       C  0.52471163  0.79531957  0.06808199    -0.20200
C1366       C  0.51199975  0.77914986  0.05336419     0.36000
C1367       C  0.51294083  0.78177102  0.02836424    -0.26200
C1368       C  0.52647943  0.80002792  0.01783225     0.02400
C1369       C  0.53878322  0.81652794  0.03246553     0.27300
C1370       C  0.53791279  0.81389219  0.05753374    -0.25300
N1371       N  0.49894701  0.75961268  0.06380680    -0.82700
H1372       H  0.50373902  0.76903426  0.01694569     0.13100
C1373       C  0.52939327  0.79981380  0.99147954     0.02400
N1374       N  0.55193154  0.83589655  0.02183916    -0.81300
H1375       H  0.54751333  0.82636386  0.06890776     0.17900
C1376       C  0.51239885  0.81118928  0.97693417    -0.26100
C1377       C  0.51304075  0.80842047  0.95183342     0.35900
C1378       C  0.53102976  0.79390869  0.94124125    -0.20100
C1379       C  0.54858694  0.78345185  0.95588261    -0.25400
C1380       C  0.54778751  0.78604917  0.98090636     0.27300
H1381       H  0.49828250  0.82170483  0.98524536     0.13000
N1382       N  0.49543811  0.82010026  0.93711971    -0.82700
H1383       H  0.56237556  0.77229634  0.94786425     0.17900
N1384       N  0.56483992  0.77374938  0.99577048    -0.81300
H1385       H  0.48348054  0.83001491  0.94768285     0.33500
H1386       H  0.50442368  0.83238607  0.92625502     0.38000
H1387       H  0.57673550  0.76368781  0.98528109     0.33500
H1388       H  0.57509167  0.78667380  0.00460559     0.30200
H1389       H  0.55960259  0.84665713  0.03513151     0.33500
H1390       H  0.56611382  0.82853947  0.01200880     0.30200
H1391       H  0.51136598  0.74830622  0.07210275     0.38100
H1392       H  0.49055651  0.74941958  0.05050696     0.33500
C1393       C  0.56874939  0.78679255  0.14428688    -0.20200
C1394       C  0.59135100  0.79164812  0.13369598     0.36000
C1395       C  0.61239776  0.78708248  0.14672522    -0.26200
C1396       C  0.61159960  0.77744987  0.16987795     0.02400
C1397       C  0.58926228  0.77272468  0.18055355     0.27300
C1398       C  0.56814201  0.77785651  0.16787755    -0.25300
N1399       N  0.59306453  0.80087147  0.10972872    -0.82700
H1400       H  0.62966216  0.79077963  0.13865613     0.13100
C1401       C  0.63442447  0.77143016  0.18215445     0.02400
N1402       N  0.58812475  0.76190008  0.20386594    -0.81300
H1403       H  0.55111201  0.77387608  0.17625160     0.17900
C1404       C  0.63987467  0.78186681  0.20441744    -0.26100
C1405       C  0.66171962  0.77689587  0.21602297     0.35900
C1406       C  0.67860475  0.76155685  0.20482720    -0.20100
C1407       C  0.67303978  0.75125836  0.18257545    -0.25400
C1408       C  0.65092862  0.75551621  0.17142843     0.27300
H1409       H  0.62713028  0.79408273  0.21262445     0.13000
N1410       N  0.66694166  0.78762251  0.23888843    -0.82700
H1411       H  0.68582123  0.73940239  0.17412384     0.17900
N1412       N  0.64495535  0.74350284  0.14940083    -0.81300
H1413       H  0.65267272  0.79840046  0.24462261     0.33500
H1414       H  0.68163480  0.79897099  0.23661822     0.38000
H1415       H  0.65895538  0.73229476  0.14389502     0.33500
H1416       H  0.63029601  0.73239933  0.15283711     0.30200
H1417       H  0.57032489  0.75949369  0.20916897     0.33500
H1418       H  0.59568925  0.74477898  0.20246382     0.30200
H1419       H  0.58608004  0.81827705  0.10993369     0.38100
H1420       H  0.61096150  0.80231532  0.10437765     0.33500
C1421       C  0.52268078  0.53499646  0.21399844    -0.20200
C1422       C  0.54087941  0.52208365  0.20187308     0.36000
C1423       C  0.53873541  0.49714436  0.19932150    -0.26200
C1424       C  0.51889924  0.48500082  0.20859235     0.02400
C1425       C  0.50003447  0.49789008  0.21931817     0.27300
C1426       C  0.50200713  0.52278193  0.22169739    -0.25300
N1427       N  0.56175344  0.53408843  0.19286802    -0.82700
H1428       H  0.55326946  0.48689171  0.19140522     0.13100
C1429       C  0.52114001  0.45914921  0.21277199     0.02400
N1430       N  0.47991315  0.48545589  0.22948648    -0.81300
H1431       H  0.48782416  0.53242104  0.23088683     0.17900
C1432       C  0.53434165  0.45209754  0.23282411    -0.26100
C1433       C  0.53650770  0.42795542  0.23894694     0.35900
C1434       C  0.52487502  0.41054597  0.22476780    -0.20100
C1435       C  0.51209713  0.41758293  0.20427018    -0.25400
C1436       C  0.51040478  0.44186706  0.19788424     0.27300
H1437       H  0.54268677  0.46564862  0.24398141     0.13000
N1438       N  0.54993257  0.42119337  0.25983925    -0.82700
H1439       H  0.50359474  0.40408964  0.19318323     0.17900
N1440       N  0.49852747  0.44891850  0.17617884    -0.81300
H1441       H  0.55774707  0.43619512  0.26790290     0.33500
H1442       H  0.53788803  0.41414694  0.27230349     0.38000
H1443       H  0.49236493  0.43384091  0.16689609     0.33500
H1444       H  0.48338963  0.45894146  0.18081959     0.30200
H1445       H  0.46820097  0.49751168  0.23788407     0.33500
H1446       H  0.47030757  0.47771196  0.21542926     0.30200
H1447       H  0.55613724  0.54559129  0.17922858     0.38100
H1448       H  0.57360835  0.52182528  0.18498899     0.33500
C1449       C  0.57130729  0.60743940  0.23069496    -0.20200
C1450       C  0.57327368  0.63216255  0.22565058     0.36000
C1451       C  0.59456277  0.64413934  0.23106455    -0.26200
C1452       C  0.61391207  0.63194965  0.24124175     0.02400
C1453       C  0.61231492  0.60720743  0.24586139     0.27300
C1454       C  0.59096315  0.59507346  0.24037678    -0.25300
N1455       N  0.55365297  0.64500885  0.21499445    -0.82700
H1456       H  0.59619110  0.66310128  0.22723981     0.13100
C1457       C  0.63624218  0.64530318  0.24529208     0.02400
N1458       N  0.63225032  0.59466889  0.25627387    -0.81300
H1459       H  0.58938243  0.57615476  0.24438505     0.17900
C1460       C  0.64313432  0.65157102  0.26866046    -0.26100
C1461       C  0.66388865  0.66526360  0.27264772     0.35900
C1462       C  0.67781177  0.67235071  0.25283363    -0.20100
C1463       C  0.67079246  0.66608259  0.22956551    -0.25400
C1464       C  0.65005041  0.65270384  0.22557376     0.27300
H1465       H  0.63222520  0.64591445  0.28367755     0.13000
N1466       N  0.67131246  0.67122439  0.29657982    -0.82700
H1467       H  0.68165458  0.67161470  0.21444721     0.17900
N1468       N  0.64287019  0.64655722  0.20159469    -0.81300
H1469       H  0.65946926  0.66396060  0.30912022     0.33500
H1470       H  0.67014126  0.68983699  0.29845687     0.38000
H1471       H  0.65484987  0.65363655  0.18907815     0.33500
H1472       H  0.64386344  0.62790938  0.19992371     0.30200
H1473       H  0.62806894  0.57659111  0.25875150     0.33500
H1474       H  0.64639741  0.59518993  0.24399131     0.30200
H1475       H  0.55791965  0.66310087  0.21277343     0.38100
H1476       H  0.55094844  0.63790783  0.19785320     0.33500
C1477       C  0.82620256  0.63250156  0.21402458    -0.20200
C1478       C  0.85066452  0.62714395  0.21836547     0.36000
C1479       C  0.86001441  0.60452554  0.21166362    -0.26200
C1480       C  0.84580119  0.58721662  0.20018630     0.02400
C1481       C  0.82166670  0.59274500  0.19517490     0.27300
C1482       C  0.81209795  0.61508173  0.20236152    -0.25300
N1483       N  0.86582619  0.64424588  0.23021452    -0.82700
H1484       H  0.87857261  0.60029336  0.21548273     0.13100
C1485       C  0.85653148  0.56346631  0.19347578     0.02400
N1486       N  0.80701501  0.57572645  0.18258013    -0.81300
H1487       H  0.79345633  0.61898005  0.19860855     0.17900
C1488       C  0.84739441  0.54228152  0.20345562    -0.26100
C1489       C  0.85799358  0.51980652  0.19857928     0.35900
C1490       C  0.87812895  0.51819081  0.18323161    -0.20100
C1491       C  0.88686446  0.53942177  0.17283569    -0.25400
C1492       C  0.87626322  0.56191239  0.17770296     0.27300
H1493       H  0.83230673  0.54326007  0.21566555     0.13000
N1494       N  0.84877226  0.49885895  0.21007447    -0.82700
H1495       H  0.90214412  0.53851742  0.16087256     0.17900
N1496       N  0.88548482  0.58324784  0.16671216    -0.81300
H1497       H  0.84962676  0.50152439  0.22860747     0.33500
H1498       H  0.83076507  0.49705622  0.20530987     0.38000
H1499       H  0.90004899  0.57914331  0.15561834     0.33500
H1500       H  0.87206605  0.59016157  0.15563964     0.30200
H1501       H  0.78968718  0.58248425  0.18024950     0.33500
H1502       H  0.81428926  0.57353496  0.16542961     0.30200
H1503       H  0.86894435  0.65819947  0.21816784     0.38100
H1504       H  0.88260701  0.63672069  0.23382804     0.33500
C1505       C  0.88141573  0.42880088  0.18300085    -0.20200
C1506       C  0.89466111  0.40925088  0.19246368     0.36000
C1507       C  0.88327315  0.38716391  0.19635331    -0.26200
C1508       C  0.85891696  0.38406030  0.19136814     0.02400
C1509       C  0.84572608  0.40327368  0.18154317     0.27300
C1510       C  0.85706853  0.42547161  0.17755451    -0.25300
N1511       N  0.91944061  0.41201210  0.19889560    -0.82700
H1512       H  0.89326608  0.37245562  0.20415221     0.13100
C1513       C  0.84723303  0.36111623  0.19821127     0.02400
N1514       N  0.82086316  0.40012781  0.17571517    -0.81300
H1515       H  0.84688820  0.44019320  0.17004405     0.17900
C1516       C  0.82936592  0.36148505  0.21587714    -0.26100
C1517       C  0.81878207  0.34021161  0.22394814     0.35900
C1518       C  0.82589805  0.31793122  0.21402812    -0.20100
C1519       C  0.84409172  0.31750940  0.19662111    -0.25400
C1520       C  0.85473352  0.33889750  0.18850369     0.27300
H1521       H  0.82394880  0.37840295  0.22385145     0.13000
N1522       N  0.80135947  0.34128335  0.24282386    -0.82700
H1523       H  0.84966482  0.30050163  0.18897706     0.17900
N1524       N  0.87296597  0.33819461  0.17030820    -0.81300
H1525       H  0.80929210  0.34938921  0.25774577     0.33500
H1526       H  0.78722092  0.35222142  0.23720207     0.38000
H1527       H  0.87646620  0.32051343  0.16506577     0.33500
H1528       H  0.86620154  0.34698825  0.15524274     0.30200
H1529       H  0.81373503  0.41588692  0.16853005     0.33500
H1530       H  0.81985169  0.38709391  0.16224481     0.30200
H1531       H  0.92657938  0.39587074  0.20517764     0.38100
H1532       H  0.92020759  0.42416264  0.21318154     0.33500
C1533       C  0.73297012  0.47249182  0.44415961    -0.20200
C1534       C  0.74493696  0.45602271  0.45921948     0.36000
C1535       C  0.73988752  0.45617213  0.48378029    -0.26200
C1536       C  0.72286653  0.47194908  0.49340239     0.02400
C1537       C  0.71003621  0.48750062  0.47833693     0.27300
C1538       C  0.71543574  0.48784796  0.45379720    -0.25300
N1539       N  0.76305033  0.44014613  0.44986660    -0.82700
H1540       H  0.74981591  0.44446083  0.49565422     0.13100
C1541       C  0.72110433  0.47389841  0.51959860     0.02400
N1542       N  0.69192426  0.50306262  0.48815644    -0.81300
H1543       H  0.70599886  0.50016578  0.44215016     0.17900
C1544       C  0.72956439  0.49482354  0.53050279    -0.26100
C1545       C  0.73268011  0.49607525  0.55534814     0.35900
C1546       C  0.72641378  0.47608699  0.56956748    -0.20100
C1547       C  0.71692100  0.45550994  0.55857091    -0.25400
C1548       C  0.71434306  0.45417334  0.53364038     0.27300
H1549       H  0.73514325  0.50970440  0.51939500     0.13000
N1550       N  0.74332225  0.51704798  0.56589055    -0.82700
H1551       H  0.71190043  0.44025261  0.56941465     0.17900
N1552       N  0.70551975  0.43272366  0.52241397    -0.81300
H1553       H  0.76010757  0.51206199  0.57254323     0.33500
H1554       H  0.74646015  0.53014206  0.55290954     0.38000
H1555       H  0.70154388  0.41975485  0.53528789     0.33500
H1556       H  0.68938390  0.43704551  0.51396228     0.30200
H1557       H  0.68411947  0.51337724  0.47463496     0.33500
H1558       H  0.67834959  0.49221821  0.49508791     0.30200
H1559       H  0.75433057  0.42684369  0.43998838     0.38100
H1560       H  0.77178198  0.43118412  0.46378502     0.33500
C1561       C  0.74812856  0.52195280  0.37281113    -0.20200
C1562       C  0.73629650  0.54258128  0.38185631     0.36000
C1563       C  0.73899539  0.56465809  0.37015995    -0.26200
C1564       C  0.75318726  0.56645739  0.34955171     0.02400
C1565       C  0.76474315  0.54601465  0.34026016     0.27300
C1566       C  0.76223631  0.52401622  0.35203281    -0.25300
N1567       N  0.72111646  0.54117840  0.40252110    -0.82700
H1568       H  0.72994399  0.58042662  0.37713683     0.13100
C1569       C  0.75605002  0.58974214  0.33751259     0.02400
N1570       N  0.77897542  0.54776833  0.31884023    -0.81300
H1571       H  0.77146780  0.50843298  0.34492524     0.17900
C1572       C  0.77760157  0.60217747  0.34036640    -0.26100
C1573       C  0.78226837  0.62306657  0.32725494     0.35900
C1574       C  0.76498056  0.63146436  0.31080491    -0.20100
C1575       C  0.74326321  0.61903542  0.30817060    -0.25400
C1576       C  0.73861764  0.59821214  0.32143234     0.27300
H1577       H  0.79099132  0.59525678  0.35258365     0.13000
N1578       N  0.80493515  0.63500348  0.32972991    -0.82700
H1579       H  0.72989316  0.62561500  0.29573875     0.17900
N1580       N  0.71648624  0.58543621  0.31844907    -0.81300
H1581       H  0.81647128  0.62503295  0.34058828     0.33500
H1582       H  0.80188426  0.65108763  0.33890327     0.38000
H1583       H  0.70548103  0.59415618  0.30607254     0.33500
H1584       H  0.72055736  0.56864191  0.31110247     0.30200
H1585       H  0.78642838  0.53112222  0.31439008     0.33500
H1586       H  0.76749205  0.55236200  0.30479214     0.30200
H1587       H  0.70394495  0.54682687  0.39760382     0.38100
H1588       H  0.72760511  0.55310818  0.41544497     0.33500
C1589       C  0.75412554  0.43339668  0.36830039    -0.20200
C1590       C  0.76340494  0.43332911  0.34469680     0.36000
C1591       C  0.76706018  0.41147074  0.33265302    -0.26200
C1592       C  0.76209399  0.38959365  0.34384708     0.02400
C1593       C  0.75326112  0.38943846  0.36745276     0.27300
C1594       C  0.74925947  0.41125965  0.37936818    -0.25300
N1595       N  0.76945022  0.45525400  0.33290697    -0.82700
H1596       H  0.77394752  0.41155552  0.31448530     0.13100
C1597       C  0.76537995  0.36688031  0.33047209     0.02400
N1598       N  0.74824462  0.36707795  0.37915292    -0.81300
H1599       H  0.74210035  0.41081937  0.39740006     0.17900
C1600       C  0.78318933  0.35066469  0.33762417    -0.26100
C1601       C  0.78586819  0.32838984  0.32611358     0.35900
C1602       C  0.77039241  0.32211046  0.30710031    -0.20100
C1603       C  0.75282454  0.33868829  0.29978389    -0.25400
C1604       C  0.75004347  0.36088813  0.31140094     0.27300
H1605       H  0.79502405  0.35531688  0.35228842     0.13000
N1606       N  0.80460701  0.31248549  0.33352498    -0.82700
H1607       H  0.74077925  0.33410787  0.28528275     0.17900
N1608       N  0.73140731  0.37719868  0.30425340    -0.81300
H1609       H  0.82093728  0.32142174  0.33166088     0.33500
H1610       H  0.80212037  0.30871597  0.35169684     0.38000
H1611       H  0.72171069  0.37014656  0.28986269     0.33500
H1612       H  0.71939109  0.37880095  0.31856763     0.30200
H1613       H  0.74206885  0.37003434  0.39661605     0.33500
H1614       H  0.73428963  0.35878378  0.36983888     0.30200
H1615       H  0.78761076  0.45458595  0.32833742     0.38100
H1616       H  0.75952016  0.45632174  0.31708034     0.33500
C1617       C  0.37757204  0.67704571  0.76059309    -0.20200
C1618       C  0.39741148  0.69035195  0.76890035     0.36000
C1619       C  0.41923478  0.67865104  0.77289541    -0.26200
C1620       C  0.42155061  0.65395993  0.76901121     0.02400
C1621       C  0.40181905  0.64062846  0.76063169     0.27300
C1622       C  0.37989980  0.65230149  0.75672748    -0.25300
N1623       N  0.39505074  0.71546266  0.77426927    -0.82700
H1624       H  0.43433589  0.68867990  0.77980309     0.13100
C1625       C  0.44445547  0.64213796  0.77492883     0.02400
N1626       N  0.40418481  0.61533765  0.75613552    -0.81300
H1627       H  0.36463587  0.64210453  0.75052289     0.17900
C1628       C  0.44445446  0.62349793  0.79166356    -0.26100
C1629       C  0.46566941  0.61151686  0.79768787     0.35900
C1630       C  0.48740369  0.61850492  0.78676639    -0.20100
C1631       C  0.48746869  0.63786236  0.77070139    -0.25400
C1632       C  0.46614756  0.64956714  0.76443615     0.27300
H1633       H  0.42776379  0.61832981  0.80010578     0.13000
N1634       N  0.46516515  0.59243580  0.81492959    -0.82700
H1635       H  0.50406589  0.64334540  0.76229110     0.17900
N1636       N  0.46632158  0.66855863  0.74708077    -0.81300
H1637       H  0.44768016  0.58932859  0.82087087     0.33500
H1638       H  0.47493647  0.59807955  0.82987577     0.38000
H1639       H  0.48376068  0.67187220  0.74111851     0.33500
H1640       H  0.45661976  0.66268753  0.73217397     0.30200
H1641       H  0.38797628  0.60818508  0.75011317     0.33500
H1642       H  0.41653630  0.61310668  0.74219600     0.30200
H1643       H  0.38334824  0.71701841  0.78883839     0.38100
H1644       H  0.41141949  0.72260676  0.77985109     0.33500
C1645       C  0.48662077  0.77584717  0.86729173    -0.20200
C1646       C  0.48321561  0.75956723  0.84811340     0.36000
C1647       C  0.46060451  0.75815250  0.83691115    -0.26200
C1648       C  0.44132559  0.77270454  0.84434080     0.02400
C1649       C  0.44474700  0.78886546  0.86351673     0.27300
C1650       C  0.46714184  0.78999155  0.87495497    -0.25300
N1651       N  0.50249663  0.74425992  0.84033039    -0.82700
H1652       H  0.45790611  0.74546864  0.82242098     0.13100
C1653       C  0.41762715  0.77078205  0.83202339     0.02400
N1654       N  0.42558726  0.80448594  0.87097076    -0.81300
H1655       H  0.46955884  0.80255523  0.88959500     0.17900
C1656       C  0.39698605  0.76564757  0.84544015    -0.26100
C1657       C  0.37447167  0.76264045  0.83441796     0.35900
C1658       C  0.37239892  0.76495896  0.80916702    -0.20100
C1659       C  0.39306352  0.77103770  0.79597470    -0.25400
C1660       C  0.41551383  0.77393779  0.80706801     0.27300
H1661       H  0.39860152  0.76324740  0.86462828     0.13000
N1662       N  0.35401327  0.75659944  0.84884733    -0.82700
H1663       H  0.39185364  0.77319346  0.77673623     0.17900
N1664       N  0.43622244  0.78008048  0.79305564    -0.81300
H1665       H  0.35839206  0.75685116  0.86705683     0.33500
H1666       H  0.34937005  0.73890836  0.84477065     0.38000
H1667       H  0.43173843  0.78165954  0.77494761     0.33500
H1668       H  0.44197221  0.79699835  0.79870007     0.30200
H1669       H  0.43094748  0.81524977  0.88535821     0.33500
H1670       H  0.42189805  0.81605509  0.85673974     0.30200
H1671       H  0.50651958  0.73262911  0.85442083     0.38100
H1672       H  0.49709384  0.73353099  0.82593108     0.33500
C1673       C  0.96719183  0.46896954  0.80464307    -0.20200
C1674       C  0.98083229  0.44794524  0.80054693     0.36000
C1675       C  0.00576261  0.44956339  0.79773508    -0.26200
C1676       C  0.01759667  0.47163147  0.79982242     0.02400
C1677       C  0.00423731  0.49251448  0.80474222     0.27300
C1678       C  0.97926905  0.49101598  0.80681194    -0.25300
N1679       N  0.96966573  0.42489461  0.79937391    -0.82700
H1680       H  0.01600725  0.43340081  0.79417995     0.13100
C1681       C  0.04410256  0.47249832  0.79827268     0.02400
N1682       N  0.01613207  0.51511871  0.80802768    -0.81300
H1683       H  0.96928846  0.50730957  0.81037182     0.17900
C1684       C  0.05517136  0.48782367  0.78169413    -0.26100
C1685       C  0.08026003  0.48986395  0.78069104     0.35900
C1686       C  0.09440610  0.47615731  0.79646460    -0.20100
C1687       C  0.08334863  0.46046311  0.81260195    -0.25400
C1688       C  0.05833538  0.45878057  0.81395612     0.27300
H1689       H  0.04417119  0.49819591  0.76953769     0.13000
N1690       N  0.09141026  0.50540007  0.76350075    -0.82700
H1691       H  0.09431004  0.44991294  0.82464392     0.17900
N1692       N  0.04729315  0.44362628  0.83156450    -0.81300
H1693       H  0.07844880  0.51424462  0.75328640     0.33500
H1694       H  0.10121515  0.49463562  0.75162328     0.38000
H1695       H  0.06028422  0.43472351  0.84168427     0.33500
H1696       H  0.03783028  0.45468184  0.84345244     0.30200
H1697       H  0.00371675  0.52876889  0.81150615     0.33500
H1698       H  0.02686856  0.51371447  0.82329528     0.30200
H1699       H  0.97720826  0.41409527  0.81267137     0.38100
H1700       H  0.97366399  0.41720194  0.78272880     0.33500
C1701       C  0.16975372  0.52242146  0.79544949    -0.20200
C1702       C  0.19348656  0.52445648  0.78672961     0.36000
C1703       C  0.20440947  0.54705369  0.78544581    -0.26200
C1704       C  0.19208942  0.56781072  0.79248491     0.02400
C1705       C  0.16871542  0.56597428  0.80176084     0.27300
C1706       C  0.15775721  0.54333179  0.80315265    -0.25300
N1707       N  0.20638971  0.50380425  0.77841921    -0.82700
H1708       H  0.22242702  0.54847478  0.77833631     0.13100
C1709       C  0.20355888  0.59149932  0.78932975     0.02400
N1710       N  0.15618044  0.58718852  0.80949375    -0.81300
H1711       H  0.13972258  0.54206693  0.81021476     0.17900
C1712       C  0.19584418  0.60640882  0.77068400    -0.26100
C1713       C  0.20625068  0.62904561  0.76704851     0.35900
C1714       C  0.22487275  0.63674864  0.78238673    -0.20100
C1715       C  0.23268624  0.62166388  0.80087820    -0.25400
C1716       C  0.22203478  0.59918945  0.80465748     0.27300
H1717       H  0.18176670  0.60023247  0.75884217     0.13000
N1718       N  0.19879402  0.64363905  0.74719520    -0.82700
H1719       H  0.24710312  0.62752399  0.81246507     0.17900
N1720       N  0.22988681  0.58410784  0.82394622    -0.81300
H1721       H  0.18614743  0.63459820  0.73675349     0.33500
H1722       H  0.19002079  0.65869477  0.75417877     0.38000
H1723       H  0.24368943  0.59236436  0.83352441     0.33500
H1724       H  0.21553370  0.58228154  0.83585261     0.30200
H1725       H  0.13914195  0.58283420  0.81590711     0.33500
H1726       H  0.16561173  0.59444690  0.82396229     0.30200
H1727       H  0.22206034  0.50225625  0.78853310     0.38100
H1728       H  0.21125594  0.50663706  0.76055523     0.33500
C1729       C  0.28900920  0.63215781  0.69905017    -0.20200
C1730       C  0.30782219  0.61595322  0.70430068     0.36000
C1731       C  0.31011270  0.59481243  0.69080738    -0.26200
C1732       C  0.29443322  0.58982702  0.67193901     0.02400
C1733       C  0.27584688  0.60592429  0.66639697     0.27300
C1734       C  0.27321606  0.62691136  0.68012246    -0.25300
N1735       N  0.32496320  0.62130460  0.72274330    -0.82700
H1736       H  0.32446366  0.58229520  0.69470644     0.13100
C1737       C  0.29806826  0.56760093  0.65812908     0.02400
N1738       N  0.25971006  0.60081203  0.64699840    -0.81300
H1739       H  0.25878402  0.63924699  0.67599364     0.17900
C1740       C  0.28647963  0.54670817  0.66554044    -0.26100
C1741       C  0.29104351  0.52470125  0.65413346     0.35900
C1742       C  0.30795359  0.52366176  0.63524534    -0.20100
C1743       C  0.31911429  0.54484856  0.62757323    -0.25400
C1744       C  0.31428517  0.56685543  0.63883561     0.27300
H1745       H  0.27398912  0.54760051  0.68040738     0.13000
N1746       N  0.27839843  0.50356200  0.66150946    -0.82700
H1747       H  0.33202199  0.54417570  0.61306407     0.17900
N1748       N  0.32622279  0.58833765  0.63124593    -0.81300
H1749       H  0.26683649  0.50742432  0.67577558     0.33500
H1750       H  0.26762775  0.49813316  0.64718415     0.38000
H1751       H  0.33798392  0.58462732  0.61710292     0.33500
H1752       H  0.31322613  0.60000705  0.62448903     0.30200
H1753       H  0.24687314  0.61440386  0.64544319     0.33500
H1754       H  0.26962155  0.60094818  0.63109608     0.30200
H1755       H  0.33454540  0.63639915  0.71725490     0.38100
H1756       H  0.33745168  0.60740172  0.72440314     0.33500
C1757       C  0.22028387  0.83613349  0.54486177    -0.20200
C1758       C  0.21545990  0.84792704  0.56692820     0.36000
C1759       C  0.22109941  0.83652379  0.58867985    -0.26200
C1760       C  0.23116672  0.81347257  0.58911785     0.02400
C1761       C  0.23510133  0.80127231  0.56723368     0.27300
C1762       C  0.22942512  0.81260413  0.54542089    -0.25300
N1763       N  0.20472373  0.87138571  0.56729774    -0.82700
H1764       H  0.21748607  0.84563472  0.60548809     0.13100
C1765       C  0.23717330  0.80223581  0.61263527     0.02400
N1766       N  0.24545325  0.77764584  0.56721692    -0.81300
H1767       H  0.23305847  0.80328115  0.52874264     0.17900
C1768       C  0.22683658  0.78016308  0.61872171    -0.26100
C1769       C  0.23192292  0.76895764  0.64070342     0.35900
C1770       C  0.24797314  0.77988800  0.65691642    -0.20100
C1771       C  0.25796557  0.80220914  0.65107380    -0.25400
C1772       C  0.25278322  0.81347609  0.62911338     0.27300
H1773       H  0.21442977  0.77180823  0.60636495     0.13000
N1774       N  0.22041963  0.74678495  0.64685353    -0.82700
H1775       H  0.27025249  0.81066392  0.66349668     0.17900
N1776       N  0.26348694  0.83615769  0.62338867    -0.81300
H1777       H  0.20909232  0.74115816  0.63304826     0.33500
H1778       H  0.20949741  0.75007076  0.66176014     0.38000
H1779       H  0.27434907  0.84208391  0.63744802     0.33500
H1780       H  0.27471983  0.83351154  0.60860181     0.30200
H1781       H  0.24707680  0.77106409  0.54972239     0.33500
H1782       H  0.26283357  0.77906686  0.57401794     0.30200
H1783       H  0.18743188  0.86978093  0.56031482     0.38100
H1784       H  0.20281209  0.87766419  0.58487476     0.33500
C1785       C  0.59616440  0.67476334  0.51145696    -0.20200
C1786       C  0.58186601  0.68227647  0.53112518     0.36000
C1787       C  0.55686226  0.68097279  0.52926538    -0.26200
C1788       C  0.54600571  0.67258361  0.50828909     0.02400
C1789       C  0.56009482  0.66443644  0.48902948     0.27300
C1790       C  0.58505118  0.66545394  0.49086620    -0.25300
N1791       N  0.59250079  0.69250443  0.55225566    -0.82700
H1792       H  0.54570840  0.68739398  0.54387168     0.13100
C1793       C  0.51988346  0.67467818  0.50596019     0.02400
N1794       N  0.54893578  0.65579097  0.46748201    -0.81300
H1795       H  0.59587664  0.65946004  0.47585428     0.17900
C1796       C  0.51063673  0.69148328  0.48984462    -0.26100
C1797       C  0.48594387  0.69563436  0.48831745     0.35900
C1798       C  0.47035915  0.68266942  0.50335870    -0.20100
C1799       C  0.47968367  0.66565512  0.51934180    -0.25400
C1800       C  0.50439902  0.66141243  0.52067622     0.27300
H1801       H  0.52283816  0.70182184  0.47887593     0.13000
N1802       N  0.47685603  0.71393090  0.47266530    -0.82700
H1803       H  0.46763872  0.65579978  0.53091283     0.17900
N1804       N  0.51392075  0.64400768  0.53706254    -0.81300
H1805       H  0.49093913  0.72332623  0.46470660     0.33500
H1806       H  0.46787532  0.70534714  0.45866543     0.38000
H1807       H  0.50010009  0.63585983  0.54668890     0.33500
H1808       H  0.52212524  0.63050693  0.52688868     0.30200
H1809       H  0.56187433  0.65077478  0.45484064     0.33500
H1810       H  0.53946450  0.64026980  0.47184771     0.30200
H1811       H  0.60075571  0.67855625  0.56160117     0.38100
H1812       H  0.57930435  0.69934489  0.56373734     0.33500
C1813       C  0.33952080  0.71817704  0.66036090    -0.20200
C1814       C  0.35439725  0.73592892  0.65044734     0.36000
C1815       C  0.36527511  0.73152886  0.62826101    -0.26200
C1816       C  0.36158757  0.70981303  0.61616883     0.02400
C1817       C  0.34695365  0.69198289  0.62617996     0.27300
C1818       C  0.33612149  0.69632319  0.64833647    -0.25300
N1819       N  0.35751922  0.75862789  0.66230960    -0.82700
H1820       H  0.37666970  0.74503700  0.62029565     0.13100
C1821       C  0.37345364  0.70597530  0.59306141     0.02400
N1822       N  0.34288334  0.66981382  0.61361638    -0.81300
H1823       H  0.32466237  0.68275312  0.65613211     0.17900
C1824       C  0.39091767  0.68802800  0.59116801    -0.26100
C1825       C  0.40323706  0.68429693  0.56961659     0.35900
C1826       C  0.39780626  0.69892746  0.54976149    -0.20100
C1827       C  0.38020503  0.71683248  0.55175072    -0.25400
C1828       C  0.36789533  0.72049008  0.57328219     0.27300
H1829       H  0.39497535  0.67702172  0.60661363     0.13000
N1830       N  0.42093361  0.66559785  0.56776139    -0.82700
H1831       H  0.37616509  0.72810129  0.53649604     0.17900
N1832       N  0.34979458  0.73879908  0.57521331    -0.81300
H1833       H  0.42284486  0.65671316  0.58411664     0.33500
H1834       H  0.41460534  0.65292261  0.55548520     0.38000
H1835       H  0.34809457  0.74806814  0.55905211     0.33500
H1836       H  0.33341437  0.73028476  0.57824215     0.30200
H1837       H  0.33177605  0.65856268  0.62361855     0.33500
H1838       H  0.33360499  0.67385467  0.59787319     0.30200
H1839       H  0.36776651  0.75562024  0.67766721     0.38100
H1840       H  0.36752651  0.77025566  0.65161149     0.33500
C1841       C  0.48945371  0.34583915  0.76930747    -0.20200
C1842       C  0.46953827  0.35907627  0.76095938     0.36000
C1843       C  0.44782150  0.34723236  0.75659280    -0.26200
C1844       C  0.44570671  0.32244989  0.76006866     0.02400
C1845       C  0.46577257  0.30911900  0.76777156     0.27300
C1846       C  0.48747770  0.32094700  0.77219388    -0.25300
N1847       N  0.47155651  0.38435376  0.75645078    -0.82700
H1848       H  0.43249259  0.35730974  0.75022439     0.13100
C1849       C  0.42232118  0.31064146  0.75588465     0.02400
N1850       N  0.46390299  0.28368638  0.77140970    -0.81300
H1851       H  0.50277096  0.31075396  0.77846816     0.17900
C1852       C  0.42096068  0.29143178  0.73968022    -0.26100
C1853       C  0.39965300  0.27854285  0.73667222     0.35900
C1854       C  0.37902913  0.28511809  0.74987730    -0.20100
C1855       C  0.38021801  0.30515765  0.76527999    -0.25400
C1856       C  0.40164893  0.31782679  0.76857791     0.27300
H1857       H  0.43669606  0.28616558  0.72952541     0.13000
N1858       N  0.39915869  0.25885375  0.72014695    -0.82700
H1859       H  0.36458564  0.31055043  0.77550527     0.17900
N1860       N  0.40265302  0.33753591  0.78523562    -0.81300
H1861       H  0.41214648  0.24641461  0.72543295     0.33500
H1862       H  0.40388223  0.26526088  0.70320900     0.38000
H1863       H  0.38584175  0.34068254  0.79293406     0.33500
H1864       H  0.41409366  0.33257433  0.79918935     0.30200
H1865       H  0.48033902  0.27650813  0.77682058     0.33500
H1866       H  0.45186665  0.28090225  0.78549167     0.30200
H1867       H  0.48380823  0.38654488  0.74243897     0.38100
H1868       H  0.45525245  0.39137784  0.75047685     0.33500
C1869       C  0.37671117  0.19218091  0.80112943    -0.20200
C1870       C  0.37674794  0.18047354  0.82355683     0.36000
C1871       C  0.39837524  0.17771855  0.83611928    -0.26200
C1872       C  0.42005657  0.18613120  0.82666974     0.02400
C1873       C  0.42023193  0.19708298  0.80391898     0.27300
C1874       C  0.39864110  0.19984514  0.79135514    -0.25300
N1875       N  0.35493060  0.17104772  0.83332850    -0.82700
H1876       H  0.39838408  0.16874477  0.85330362     0.13100
C1877       C  0.44255550  0.18311553  0.84055161     0.02400
N1878       N  0.44228208  0.20582797  0.79389297    -0.81300
H1879       H  0.39891598  0.20882855  0.77417829     0.17900
C1880       C  0.46217313  0.17165382  0.82966084    -0.26100
C1881       C  0.48422557  0.16953641  0.84149412     0.35900
C1882       C  0.48650848  0.17841736  0.86507818    -0.20100
C1883       C  0.46668562  0.18926138  0.87629955    -0.25400
C1884       C  0.44481044  0.19204005  0.86415613     0.27300
H1885       H  0.46026539  0.16439542  0.81173312     0.13000
N1886       N  0.50418650  0.15814052  0.82973148    -0.82700
H1887       H  0.46847503  0.19614076  0.89439346     0.17900
N1888       N  0.42506489  0.20421503  0.87551879    -0.81300
H1889       H  0.49956842  0.15284612  0.81235663     0.33500
H1890       H  0.50820639  0.14248830  0.83916726     0.38000
H1891       H  0.42966198  0.20960152  0.89287471     0.33500
H1892       H  0.42166334  0.21985873  0.86582692     0.30200
H1893       H  0.43939910  0.21324978  0.77696395     0.33500
H1894       H  0.44838012  0.21970541  0.80492370     0.30200
H1895       H  0.34939968  0.15736871  0.82180811     0.38100
H1896       H  0.35799337  0.16309041  0.84997640     0.33500
C1897       C  0.29542337  0.32354927  0.69372267    -0.20200
C1898       C  0.28291059  0.33021805  0.67272983     0.36000
C1899       C  0.28874744  0.35180092  0.66127591    -0.26200
C1900       C  0.30653852  0.36688335  0.67047654     0.02400
C1901       C  0.31936218  0.36013493  0.69104313     0.27300
C1902       C  0.31367195  0.33857322  0.70247523    -0.25300
N1903       N  0.26402049  0.31544779  0.66339312    -0.82700
H1904       H  0.27895070  0.35725657  0.64544721     0.13100
C1905       C  0.31084325  0.39023865  0.65896832     0.02400
N1906       N  0.33809794  0.37524586  0.70017810    -0.81300
H1907       H  0.32374894  0.33340103  0.71821720     0.17900
C1908       C  0.30599068  0.41123990  0.67188703    -0.26100
C1909       C  0.30930175  0.43388981  0.66158042     0.35900
C1910       C  0.31708432  0.43548913  0.63740663    -0.20100
C1911       C  0.32225863  0.41417539  0.62473718    -0.25400
C1912       C  0.31939649  0.39162970  0.63533682     0.27300
H1913       H  0.29953359  0.40988677  0.69015921     0.13000
N1914       N  0.30466617  0.45503393  0.67566449    -0.82700
H1915       H  0.32849555  0.41495449  0.60637696     0.17900
N1916       N  0.32513180  0.37011420  0.62224354    -0.81300
H1917       H  0.29799498  0.45054237  0.69257539     0.33500
H1918       H  0.32110874  0.46345169  0.67863307     0.38000
H1919       H  0.33114393  0.37422221  0.60499128     0.33500
H1920       H  0.33943619  0.36177642  0.63099702     0.30200
H1921       H  0.34576712  0.36773803  0.71550626     0.33500
H1922       H  0.35161697  0.37590695  0.68720979     0.30200
H1923       H  0.25008744  0.31559675  0.67593733     0.38100
H1924       H  0.25705626  0.32274716  0.64763325     0.33500
C1925       C  0.22991644  0.32043890  0.78337285    -0.20200
C1926       C  0.20625016  0.32172830  0.79238879     0.36000
C1927       C  0.19526977  0.34427462  0.79530218    -0.26200
C1928       C  0.20711886  0.36547963  0.78885726     0.02400
C1929       C  0.23074223  0.36423193  0.78004398     0.27300
C1930       C  0.24199539  0.34186565  0.77787257    -0.25300
N1931       N  0.19332461  0.30029666  0.79830985    -0.82700
H1932       H  0.17721307  0.34533465  0.80238148     0.13100
C1933       C  0.19435712  0.38880910  0.79074377     0.02400
N1934       N  0.24293740  0.38560521  0.77252180    -0.81300
H1935       H  0.26002788  0.34122158  0.77070097     0.17900
C1936       C  0.20479574  0.40776640  0.80361431    -0.26100
C1937       C  0.19330667  0.43015189  0.80559850     0.35900
C1938       C  0.17085862  0.43358362  0.79449287    -0.20100
C1939       C  0.16042010  0.41453750  0.78174193    -0.25400
C1940       C  0.17199488  0.39229813  0.77955500     0.27300
H1941       H  0.22185267  0.40495424  0.81241930     0.13000
N1942       N  0.20407987  0.44911918  0.81930181    -0.82700
H1943       H  0.14329357  0.41714701  0.77300889     0.17900
N1944       N  0.16127475  0.37334420  0.76575238    -0.81300
H1945       H  0.22075218  0.44375760  0.82594150     0.33500
H1946       H  0.19312622  0.45232861  0.83419413     0.38000
H1947       H  0.14472656  0.37875858  0.75885612     0.33500
H1948       H  0.17241680  0.36992119  0.75104938     0.30200
H1949       H  0.26024738  0.38159177  0.76651440     0.33500
H1950       H  0.23365949  0.39251694  0.75781273     0.30200
H1951       H  0.20199618  0.29230836  0.81283744     0.38100
H1952       H  0.17594749  0.30443226  0.80402909     0.33500
C1953       C  0.22390012  0.03907616  0.49465459    -0.20200
C1954       C  0.23447596  0.02535673  0.47599804     0.36000
C1955       C  0.23208060  0.00023396  0.47608284    -0.26200
C1956       C  0.21922062  0.98860498  0.49423908     0.02400
C1957       C  0.20793215  0.00234228  0.51226969     0.27300
C1958       C  0.21069727  0.02734735  0.51250870    -0.25300
N1959       N  0.24804253  0.03682900  0.45737879    -0.82700
H1960       H  0.24074619  0.98960186  0.46226227     0.13100
C1961       C  0.21862299  0.96198406  0.49499281     0.02400
N1962       N  0.19353469  0.99077848  0.53017516    -0.81300
H1963       H  0.20212930  0.03778958  0.52652668     0.17900
C1964       C  0.22812694  0.95026537  0.51503230    -0.26100
C1965       C  0.22797179  0.92514705  0.51679816     0.35900
C1966       C  0.21779984  0.91130601  0.49809277    -0.20100
C1967       C  0.20852939  0.92316772  0.47787029    -0.25400
C1968       C  0.20873217  0.94833345  0.47619034     0.27300
H1969       H  0.23599594  0.96085550  0.52929181     0.13000
N1970       N  0.23852290  0.91378076  0.53733154    -0.82700
H1971       H  0.20069409  0.91280126  0.46344167     0.17900
N1972       N  0.19862917  0.96009618  0.45566203    -0.81300
H1973       H  0.24468839  0.92655855  0.54958844     0.33500
H1974       H  0.25359832  0.90428928  0.53140149     0.38000
H1975       H  0.19207252  0.94750327  0.44341928     0.33500
H1976       H  0.18389117  0.97012742  0.46155602     0.30200
H1977       H  0.18642621  0.00338962  0.54215067     0.33500
H1978       H  0.17897240  0.98291130  0.52143144     0.30200
H1979       H  0.26314361  0.04452165  0.46531322     0.38100
H1980       H  0.25434048  0.02420655  0.44496588     0.33500
C1981       C  0.24962541  0.17589593  0.65261420    -0.20200
C1982       C  0.23308557  0.15674092  0.65195552     0.36000
C1983       C  0.22945445  0.14411286  0.63036111    -0.26200
C1984       C  0.24170213  0.15046762  0.60936766     0.02400
C1985       C  0.25792593  0.16979004  0.60990507     0.27300
C1986       C  0.26153297  0.18245073  0.63143501    -0.25300
N1987       N  0.21979386  0.15042424  0.67308986    -0.82700
H1988       H  0.21679828  0.12943591  0.62978035     0.13100
C1989       C  0.23702439  0.13721358  0.58670025     0.02400
N1990       N  0.27101168  0.17614567  0.58865247    -0.81300
H1991       H  0.27435110  0.19699232  0.63187344     0.17900
C1992       C  0.22696192  0.14953258  0.56731392    -0.26100
C1993       C  0.22325657  0.13815036  0.54511485     0.35900
C1994       C  0.22988181  0.11377949  0.54217995    -0.20100
C1995       C  0.23919419  0.10126707  0.56195233    -0.25400
C1996       C  0.24304075  0.11278250  0.58409192     0.27300
H1997       H  0.22207322  0.16822293  0.56954315     0.13000
N1998       N  0.21275527  0.15130809  0.52565108    -0.82700
H1999       H  0.24432403  0.08262697  0.55992422     0.17900
N2000       N  0.25360015  0.09995240  0.60373201    -0.81300
H2001       H  0.20933416  0.16906055  0.53069617     0.33500
H2002       H  0.19614736  0.14355788  0.52188977     0.38000
H2003       H  0.25698443  0.08213393  0.59889595     0.33500
H2004       H  0.27023788  0.10773288  0.60730245     0.30200
H2005       H  0.28224541  0.19073399  0.59200831     0.33500
H2006       H  0.28214319  0.16167679  0.58423122     0.30200
H2007       H  0.20875735  0.16497905  0.67747938     0.38100
H2008       H  0.20844367  0.13595560  0.66960326     0.33500
C2009       C  0.22885551  0.11677877  0.45362706    -0.20200
C2010       C  0.23934026  0.13980006  0.45186461     0.36000
C2011       C  0.23936562  0.15161031  0.42965168    -0.26200
C2012       C  0.22931013  0.14088124  0.40928668     0.02400
C2013       C  0.21839010  0.11827106  0.41111606     0.27300
C2014       C  0.21837937  0.10642464  0.43318955    -0.25300
N2015       N  0.25048570  0.15084621  0.47230217    -0.82700
H2016       H  0.24797234  0.16891243  0.42798642     0.13100
C2017       C  0.23199712  0.15256832  0.38572633     0.02400
N2018       N  0.20747314  0.10740809  0.39045135    -0.81300
H2019       H  0.20998570  0.08899234  0.43441500     0.17900
C2020       C  0.24496918  0.14055594  0.36782638    -0.26100
C2021       C  0.24870452  0.15096311  0.34534693     0.35900
C2022       C  0.23936798  0.17409446  0.34079611    -0.20100
C2023       C  0.22636481  0.18613645  0.35877687    -0.25400
C2024       C  0.22241018  0.17548503  0.38119066     0.27300
H2025       H  0.25251693  0.12304924  0.37158802     0.13000
N2026       N  0.26303587  0.13864198  0.32770266    -0.82700
H2027       H  0.21928179  0.20389610  0.35530637     0.17900
N2028       N  0.20876782  0.18777736  0.39934623    -0.81300
H2029       H  0.27068495  0.12315221  0.33494144     0.33500
H2030       H  0.25152815  0.13276586  0.31416336     0.38000
H2031       H  0.20309080  0.20452777  0.39317132     0.33500
H2032       H  0.19329636  0.17775652  0.40251778     0.30200
H2033       H  0.20035292  0.09065320  0.39475397     0.33500
H2034       H  0.19305153  0.11825483  0.38539108     0.30200
H2035       H  0.26545116  0.14049256  0.47678658     0.38100
H2036       H  0.25689233  0.16788562  0.46797032     0.33500
C2037       C  0.46357415  0.28470834  0.49486764    -0.20200
C2038       C  0.47289966  0.30136425  0.51149574     0.36000
C2039       C  0.49782639  0.30460617  0.51288206    -0.26200
C2040       C  0.51327456  0.29148319  0.49798212     0.02400
C2041       C  0.50390671  0.27550036  0.48083132     0.27300
C2042       C  0.47908477  0.27254922  0.47921115    -0.25300
N2043       N  0.45709333  0.31452246  0.52710596    -0.82700
H2044       H  0.50529907  0.31665697  0.52616184     0.13100
C2045       C  0.53918125  0.29161360  0.50265841     0.02400
N2046       N  0.51973927  0.26115487  0.46628298    -0.81300
H2047       H  0.47190746  0.25955343  0.46667466     0.17900
C2048       C  0.54810286  0.27514104  0.51925796    -0.26100
C2049       C  0.57273933  0.27087031  0.52116491     0.35900
C2050       C  0.58860258  0.28323906  0.50587508    -0.20100
C2051       C  0.57974792  0.30093197  0.49039828    -0.25400
C2052       C  0.55502896  0.30546276  0.48884803     0.27300
H2053       H  0.53567177  0.26469633  0.52986475     0.13000
N2054       N  0.58154147  0.25317236  0.53766760    -0.82700
H2055       H  0.59209219  0.31078140  0.47914827     0.17900
N2056       N  0.54594724  0.32381067  0.47326394    -0.81300
H2057       H  0.56751417  0.24607825  0.54782328     0.33500
H2058       H  0.58864252  0.23898062  0.52761013     0.38000
H2059       H  0.56005554  0.33272042  0.46480539     0.33500
H2060       H  0.53600444  0.31552705  0.45974649     0.30200
H2061       H  0.50997900  0.24952308  0.45530956     0.33500
H2062       H  0.52899833  0.27266935  0.45484850     0.30200
H2063       H  0.44642037  0.32552993  0.51636407     0.38100
H2064       H  0.46686721  0.32590510  0.53833047     0.33500
C2065       C  0.39464038  0.25424822  0.53962286    -0.20200
C2066       C  0.40869231  0.24700863  0.55943003     0.36000
C2067       C  0.39733484  0.24090490  0.58098931    -0.26200
C2068       C  0.37237550  0.24193253  0.58316653     0.02400
C2069       C  0.35828027  0.24822239  0.56320589     0.27300
C2070       C  0.36956585  0.25423754  0.54160174    -0.25300
N2071       N  0.43437951  0.24598503  0.55770625    -0.82700
H2072       H  0.40802958  0.23614229  0.59645594     0.13100
C2073       C  0.36149061  0.23927953  0.60713570     0.02400
N2074       N  0.33260162  0.24901361  0.56519195    -0.81300
H2075       H  0.35872778  0.25956653  0.52642752     0.17900
C2076       C  0.34880696  0.25882366  0.61664775    -0.26100
C2077       C  0.33857081  0.25775719  0.63949121     0.35900
C2078       C  0.34105593  0.23661942  0.65305388    -0.20100
C2079       C  0.35446104  0.21731744  0.64396750    -0.25400
C2080       C  0.36459052  0.21835570  0.62093146     0.27300
H2081       H  0.34708401  0.27508798  0.60622009     0.13000
N2082       N  0.32577613  0.27808202  0.64906409    -0.82700
H2083       H  0.35620236  0.20110317  0.65446793     0.17900
N2084       N  0.37756604  0.19819591  0.61132982    -0.81300
H2085       H  0.33522472  0.28424929  0.66401765     0.33500
H2086       H  0.32551854  0.29215709  0.63674284     0.38000
H2087       H  0.37829572  0.18430650  0.62384199     0.33500
H2088       H  0.36791731  0.19168833  0.59665451     0.30200
H2089       H  0.32488542  0.25429604  0.54898126     0.33500
H2090       H  0.32668984  0.23157790  0.56852476     0.30200
H2091       H  0.43875131  0.23263959  0.54523305     0.38100
H2092       H  0.44192034  0.24071485  0.57400459     0.33500
C2093       C  0.33009534  0.23215678  0.34289988    -0.20200
C2094       C  0.35130173  0.21919829  0.34835141     0.36000
C2095       C  0.36302301  0.22345085  0.37028129    -0.26200
C2096       C  0.35408160  0.24023444  0.38675443     0.02400
C2097       C  0.33301771  0.25303457  0.38154338     0.27300
C2098       C  0.32132091  0.24892609  0.35972607    -0.25300
N2099       N  0.36068665  0.20150976  0.33202999    -0.82700
H2100       H  0.37935637  0.21381340  0.37449895     0.13100
C2101       C  0.36746603  0.24510672  0.40902737     0.02400
N2102       N  0.32391575  0.27060464  0.39818143    -0.81300
H2103       H  0.30531784  0.25919965  0.35579279     0.17900
C2104       C  0.38581654  0.26212152  0.40862465    -0.26100
C2105       C  0.39825584  0.26831943  0.42960906     0.35900
C2106       C  0.39202927  0.25722443  0.45155911    -0.20100
C2107       C  0.37377869  0.23984771  0.45166689    -0.25400
C2108       C  0.36161350  0.23350837  0.43057498     0.27300
H2109       H  0.39021147  0.27082324  0.39185835     0.13000
N2110       N  0.41689159  0.28602348  0.42862321    -0.82700
H2111       H  0.36916062  0.23086993  0.46821062     0.17900
N2112       N  0.34382911  0.21490972  0.43080677    -0.81300
H2113       H  0.41098045  0.30100025  0.43829804     0.33500
H2114       H  0.41966641  0.29175658  0.41102306     0.38000
H2115       H  0.34209193  0.20772835  0.44799764     0.33500
H2116       H  0.32729067  0.22260002  0.42661036     0.30200
H2117       H  0.30858109  0.27891017  0.39133643     0.33500
H2118       H  0.31851394  0.26165170  0.41367032     0.30200
H2119       H  0.36804995  0.21062292  0.31745600     0.38100
H2120       H  0.37488371  0.19213627  0.33987428     0.33500
C2121       C  0.37256290  0.66370882  0.25968112    -0.20200
C2122       C  0.37666983  0.64444294  0.24357115     0.36000
C2123       C  0.39909067  0.63323627  0.24326581    -0.26200
C2124       C  0.41757515  0.64128236  0.25806880     0.02400
C2125       C  0.41364960  0.66015951  0.27430228     0.27300
C2126       C  0.39106174  0.67116918  0.27508705    -0.25300
N2127       N  0.35854663  0.63696900  0.22684861    -0.82700
H2128       H  0.40256625  0.61880142  0.23066008     0.13100
C2129       C  0.44138795  0.63062744  0.25491351     0.02400
N2130       N  0.43273233  0.66819986  0.28958022    -0.81300
H2131       H  0.38801771  0.68582959  0.28752118     0.17900
C2132       C  0.45920224  0.64405272  0.24354375    -0.26100
C2133       C  0.48092882  0.63336936  0.23697243     0.35900
C2134       C  0.48466406  0.60884670  0.24167138    -0.20100
C2135       C  0.46713477  0.59575094  0.25398368    -0.25400
C2136       C  0.44555503  0.60654544  0.26091291     0.27300
H2137       H  0.45585276  0.66262841  0.23895937     0.13000
N2138       N  0.49863306  0.64718607  0.22464542    -0.82700
H2139       H  0.47026955  0.57704656  0.25815568     0.17900
N2140       N  0.42769432  0.59319626  0.27371985    -0.81300
H2141       H  0.49092112  0.65398836  0.20901407     0.33500
H2142       H  0.50330437  0.66167973  0.23559355     0.38000
H2143       H  0.43361437  0.57567941  0.27679987     0.33500
H2144       H  0.42562733  0.60124607  0.29055269     0.30200
H2145       H  0.42694772  0.68239760  0.30043471     0.33500
H2146       H  0.43712146  0.65408291  0.30105262     0.30200
H2147       H  0.35591974  0.65099437  0.21473875     0.38100
H2148       H  0.36439504  0.62226133  0.21673144     0.33500
C2149       C  0.37151417  0.75718957  0.20458850    -0.20200
C2150       C  0.39276494  0.74403818  0.20872436     0.36000
C2151       C  0.41407520  0.75100083  0.19733459    -0.26200
C2152       C  0.41448200  0.77061922  0.18174505     0.02400
C2153       C  0.39334753  0.78388409  0.17770652     0.27300
C2154       C  0.37196108  0.77694186  0.18909076    -0.25300
N2155       N  0.39244723  0.72327210  0.22393351    -0.82700
H2156       H  0.43034200  0.74073460  0.20010997     0.13100
C2157       C  0.43693733  0.77608224  0.16873689     0.02400
N2158       N  0.39375195  0.80425544  0.16202541    -0.81300
H2159       H  0.35564508  0.78704830  0.18604319     0.17900
C2160       C  0.43843398  0.77063864  0.14429377    -0.26100
C2161       C  0.45984091  0.77387661  0.13156780     0.35900
C2162       C  0.48027901  0.78305138  0.14337226    -0.20100
C2163       C  0.47864909  0.78856235  0.16797494    -0.25400
C2164       C  0.45710396  0.78531158  0.18071891     0.27300
H2165       H  0.42300025  0.76325678  0.13513927     0.13000
N2166       N  0.46086489  0.76698725  0.10684175    -0.82700
H2167       H  0.49412763  0.79565383  0.17725613     0.17900
N2168       N  0.45552901  0.79137777  0.20572723    -0.81300
H2169       H  0.44787489  0.77676697  0.09755967     0.33500
H2170       H  0.45652521  0.74881087  0.10556536     0.38000
H2171       H  0.47192235  0.79793134  0.21192393     0.33500
H2172       H  0.44316477  0.80540164  0.20744676     0.30200
H2173       H  0.37674498  0.81208157  0.16097873     0.33500
H2174       H  0.40501824  0.81708085  0.16972108     0.30200
H2175       H  0.38144789  0.71045324  0.21583719     0.38100
H2176       H  0.40952372  0.71561510  0.22507926     0.33500
C2177       C  0.33077608  0.71344574  0.35207384    -0.20200
C2178       C  0.34772827  0.73057891  0.35980143     0.36000
C2179       C  0.36011676  0.72686395  0.38137848    -0.26200
C2180       C  0.35578574  0.70655809  0.39547491     0.02400
C2181       C  0.33843432  0.68977045  0.38810096     0.27300
C2182       C  0.32599315  0.69349572  0.36658288    -0.25300
N2183       N  0.35196622  0.75187193  0.34600871    -0.82700
H2184       H  0.37305227  0.74000413  0.38741492     0.13100
C2185       C  0.36927959  0.70339382  0.41812511     0.02400
N2186       N  0.33381596  0.66881481  0.40228540    -0.81300
H2187       H  0.31294934  0.68037090  0.36076521     0.17900
C2188       C  0.35667118  0.70088758  0.43968296    -0.26100
C2189       C  0.36869041  0.69831634  0.46159503     0.35900
C2190       C  0.39411385  0.69881847  0.46199658    -0.20100
C2191       C  0.40662344  0.70123858  0.44024904    -0.25400
C2192       C  0.39451166  0.70311976  0.41834228     0.27300
H2193       H  0.33726338  0.70112354  0.43941960     0.13000
N2194       N  0.35503171  0.69462537  0.48313874    -0.82700
H2195       H  0.42601374  0.70143038  0.44019967     0.17900
N2196       N  0.40772646  0.70434891  0.39624991    -0.81300
H2197       H  0.33699538  0.69163541  0.47912244     0.33500
H2198       H  0.35548719  0.71060681  0.49295927     0.38000
H2199       H  0.42616209  0.70395990  0.39951434     0.33500
H2200       H  0.40378752  0.68889208  0.38638038     0.30200
H2201       H  0.32042422  0.65834916  0.39444482     0.33500
H2202       H  0.34941652  0.65839960  0.40229926     0.30200
H2203       H  0.33611163  0.76190474  0.34605386     0.38100
H2204       H  0.36499152  0.76255081  0.35418572     0.33500
C2205       C  0.23728616  0.77160602  0.34606448    -0.20200
C2206       C  0.21952120  0.78963626  0.34620526     0.36000
C2207       C  0.21390487  0.80136726  0.36786381    -0.26200
C2208       C  0.22573518  0.79538153  0.38924022     0.02400
C2209       C  0.24320110  0.77705987  0.38907871     0.27300
C2210       C  0.24861784  0.76523115  0.36754160    -0.25300
N2211       N  0.20719497  0.79580085  0.32447011    -0.82700
H2212       H  0.20036520  0.81532190  0.36810819     0.13100
C2213       C  0.22065729  0.80911160  0.41152129     0.02400
N2214       N  0.25580469  0.77096821  0.41068041    -0.81300
H2215       H  0.26240557  0.75150524  0.36735901     0.17900
C2216       C  0.21289991  0.79699272  0.43208848    -0.26100
C2217       C  0.21013870  0.80901802  0.45415101     0.35900
C2218       C  0.21549619  0.83377687  0.45571790    -0.20100
C2219       C  0.22215893  0.84599540  0.43467619    -0.25400
C2220       C  0.22494002  0.83393815  0.41271654     0.27300
H2221       H  0.20925478  0.77795581  0.43093179     0.13000
N2222       N  0.20193773  0.79611231  0.47482222    -0.82700
H2223       H  0.22612213  0.86496923  0.43542722     0.17900
N2224       N  0.23282522  0.84667854  0.39178685    -0.81300
H2225       H  0.19922777  0.77803698  0.47064676     0.33500
H2226       H  0.18518888  0.80311888  0.47956071     0.38000
H2227       H  0.23501471  0.86489886  0.39560855     0.33500
H2228       H  0.24973076  0.84003837  0.38707769     0.30200
H2229       H  0.26797930  0.75702609  0.40751736     0.33500
H2230       H  0.26590866  0.78588513  0.41576859     0.30200
H2231       H  0.19750209  0.78074486  0.31898165     0.38100
H2232       H  0.19467680  0.80942652  0.32765278     0.33500
C2233       C  0.08235250  0.47612267  0.17623687    -0.20200
C2234       C  0.07084300  0.49351215  0.16190641     0.36000
C2235       C  0.04574954  0.49292450  0.15937474    -0.26200
C2236       C  0.03192623  0.47529324  0.17075031     0.02400
C2237       C  0.04352531  0.45746307  0.18440623     0.27300
C2238       C  0.06855661  0.45797707  0.18682100    -0.25300
N2239       N  0.08463213  0.51143782  0.14968998    -0.82700
H2240       H  0.03687517  0.50628466  0.14846116     0.13100
C2241       C  0.00530974  0.47604556  0.16883023     0.02400
N2242       N  0.02980193  0.43921386  0.19624815    -0.81300
H2243       H  0.07727446  0.44449223  0.19770487     0.17900
C2244       C  0.99293088  0.45573064  0.16076726    -0.26100
C2245       C  0.96774676  0.45505404  0.16057223     0.35900
C2246       C  0.95449609  0.47547266  0.16816304    -0.20100
C2247       C  0.96703650  0.49620469  0.17505503    -0.25400
C2248       C  0.99220563  0.49652439  0.17598385     0.27300
H2249       H  0.00302949  0.44012796  0.15497683     0.13000
N2250       N  0.95572894  0.43356605  0.15299438    -0.82700
H2251       H  0.95719465  0.51189094  0.18102058     0.17900
N2252       N  0.00448347  0.51722959  0.18514497    -0.81300
H2253       H  0.96807622  0.42006704  0.14875019     0.33500
H2254       H  0.94648889  0.43750859  0.13721059     0.38000
H2255       H  0.99228642  0.53076687  0.18968229     0.33500
H2256       H  0.01296943  0.51219530  0.20105048     0.30200
H2257       H  0.04105104  0.42734109  0.20536958     0.33500
H2258       H  0.01914156  0.44764085  0.20921175     0.30200
H2259       H  0.09549343  0.50261616  0.13715484     0.38100
H2260       H  0.07342261  0.52286655  0.13997316     0.33500
C2261       C  0.15783681  0.52044876  0.19094309    -0.20200
C2262       C  0.14685114  0.54114050  0.20089064     0.36000
C2263       C  0.16028737  0.56229225  0.20380724    -0.26200
C2264       C  0.18438597  0.56354817  0.19669957     0.02400
C2265       C  0.19512809  0.54320692  0.18596630     0.27300
C2266       C  0.18191242  0.52181001  0.18361156    -0.25300
N2267       N  0.12227638  0.54052277  0.20858987    -0.82700
H2268       H  0.15204894  0.57778058  0.21224887     0.13100
C2269       C  0.19834301  0.58587267  0.20177335     0.02400
N2270       N  0.21933140  0.54446094  0.17724307    -0.81300
H2271       H  0.19034586  0.50620561  0.17559148     0.17900
C2272       C  0.21932480  0.58438627  0.21552216    -0.26100
C2273       C  0.23205414  0.60505594  0.22239168     0.35900
C2274       C  0.22377329  0.62797279  0.21514565    -0.20100
C2275       C  0.20283329  0.62939232  0.20121624    -0.25400
C2276       C  0.19022266  0.60864359  0.19427092     0.27300
H2277       H  0.22539010  0.56698185  0.22161536     0.13000
N2278       N  0.25288998  0.60278236  0.23736002    -0.82700
H2279       H  0.19636573  0.64678038  0.19549272     0.17900
N2280       N  0.16928098  0.61058462  0.17945036    -0.81300
H2281       H  0.25683279  0.58475697  0.24062377     0.33500
H2282       H  0.24876335  0.61049060  0.25397699     0.38000
H2283       H  0.16561324  0.62853144  0.17551582     0.33500
H2284       H  0.17313898  0.60211915  0.16314245     0.30200
H2285       H  0.22455053  0.52807332  0.16969745     0.33500
H2286       H  0.21965053  0.55702807  0.16339030     0.30200
H2287       H  0.12124057  0.52886001  0.22317114     0.38100
H2288       H  0.11676070  0.55736422  0.21480721     0.33500
C2289       C  0.15671038  0.43137745  0.19271662    -0.20200
C2290       C  0.14771212  0.40942749  0.18345356     0.36000
C2291       C  0.16038874  0.38794250  0.18752146    -0.26200
C2292       C  0.18140598  0.38754248  0.20127454     0.02400
C2293       C  0.18974448  0.40913028  0.21146028     0.27300
C2294       C  0.17770777  0.43081054  0.20661177    -0.25300
N2295       N  0.12579692  0.40885763  0.16994938    -0.82700
H2296       H  0.15384237  0.37133169  0.17987244     0.13100
C2297       C  0.19423467  0.36433644  0.20528388     0.02400
N2298       N  0.21003989  0.40882966  0.22727127    -0.81300
H2299       H  0.18440189  0.44728544  0.21439914     0.17900
C2300       C  0.21855613  0.36213114  0.19910227    -0.26100
C2301       C  0.23131474  0.34072158  0.20319429     0.35900
C2302       C  0.21949515  0.32067335  0.21315118    -0.20100
C2303       C  0.19500131  0.32286153  0.21884576    -0.25400
C2304       C  0.18244518  0.34451419  0.21552017     0.27300
H2305       H  0.22777554  0.37721787  0.19116031     0.13000
N2306       N  0.25621781  0.33950389  0.19707617    -0.82700
H2307       H  0.18570890  0.30783651  0.22675917     0.17900
N2308       N  0.15793142  0.34667237  0.22318333    -0.81300
H2309       H  0.25798667  0.34331144  0.17883014     0.33500
H2310       H  0.26515523  0.35285801  0.20671724     0.38000
H2311       H  0.15191235  0.33055923  0.23052271     0.33500
H2312       H  0.15735982  0.35938030  0.23699607     0.30200
H2313       H  0.21376364  0.42610308  0.23353030     0.33500
H2314       H  0.20532740  0.39869843  0.24228056     0.30200
H2315       H  0.12124439  0.39126014  0.16537707     0.38100
H2316       H  0.12880775  0.41790760  0.15386405     0.33500
C2317       C  0.33331087  0.47162532  0.43809901    -0.20200
C2318       C  0.34365571  0.49210179  0.44884643     0.36000
C2319       C  0.34798564  0.49209351  0.47356867    -0.26200
C2320       C  0.34221901  0.47212411  0.48755191     0.02400
C2321       C  0.33334014  0.45126088  0.47657621     0.27300
C2322       C  0.32933012  0.45104257  0.45191733    -0.25300
N2323       N  0.34900134  0.51301761  0.43486439    -0.82700
H2324       H  0.35463792  0.50815827  0.48224031     0.13100
C2325       C  0.34052915  0.47519724  0.51365170     0.02400
N2326       N  0.32669224  0.43088936  0.49062393    -0.81300
H2327       H  0.32142719  0.43519146  0.44395301     0.17900
C2328       C  0.32300937  0.49102097  0.52233142    -0.26100
C2329       C  0.31869117  0.49337309  0.54689146     0.35900
C2330       C  0.33218788  0.47943394  0.56305332    -0.20100
C2331       C  0.35027199  0.46410921  0.55439123    -0.25400
C2332       C  0.35489261  0.46214467  0.52972097     0.27300
H2333       H  0.31214571  0.50105840  0.50976021     0.13000
N2334       N  0.30008963  0.50918283  0.55535643    -0.82700
H2335       H  0.36085451  0.45375871  0.56692968     0.17900
N2336       N  0.37457311  0.44781854  0.52107478    -0.81300
H2337       H  0.29220176  0.51838085  0.54109513     0.33500
H2338       H  0.28665959  0.49859834  0.56293080     0.38000
H2339       H  0.38419730  0.44063184  0.53542275     0.33500
H2340       H  0.36765743  0.43324566  0.51162356     0.30200
H2341       H  0.30845480  0.42764919  0.48794901     0.33500
H2342       H  0.33619932  0.41603353  0.48414220     0.30200
H2343       H  0.36236540  0.50827745  0.42257236     0.38100
H2344       H  0.35610914  0.52658900  0.44566444     0.33500
C2345       C  0.29918771  0.51581406  0.37051238    -0.20200
C2346       C  0.28096828  0.51664450  0.35293538     0.36000
C2347       C  0.27570671  0.53845251  0.34184530    -0.26200
C2348       C  0.28789062  0.55928327  0.34830146     0.02400
C2349       C  0.30503962  0.55894869  0.36669415     0.27300
C2350       C  0.31048207  0.53713428  0.37776332    -0.25300
N2351       N  0.26788299  0.49545986  0.34638563    -0.82700
H2352       H  0.26239582  0.53919499  0.32774418     0.13100
C2353       C  0.28416180  0.58077163  0.33391182     0.02400
N2354       N  0.31713983  0.58061622  0.37361862    -0.81300
H2355       H  0.32421008  0.53667617  0.39145444     0.17900
C2356       C  0.26786454  0.59817787  0.34166041    -0.26100
C2357       C  0.26438946  0.61914455  0.32837518     0.35900
C2358       C  0.27815506  0.62282212  0.30737022    -0.20100
C2359       C  0.29350312  0.60454638  0.29908912    -0.25400
C2360       C  0.29669671  0.58354434  0.31227211     0.27300
H2361       H  0.25788396  0.59534057  0.35807531     0.13000
N2362       N  0.24693131  0.63656097  0.33608225    -0.82700
H2363       H  0.30373472  0.60695270  0.28276681     0.17900
N2364       N  0.31279182  0.56508437  0.30401076    -0.81300
H2365       H  0.23859949  0.63111811  0.35193782     0.33500
H2366       H  0.23355722  0.63726318  0.32299894     0.38000
H2367       H  0.32033661  0.56973377  0.28751969     0.33500
H2368       H  0.32692770  0.56398790  0.31622827     0.30200
H2369       H  0.32906412  0.57728618  0.38765655     0.33500
H2370       H  0.32748834  0.58622271  0.35906235     0.30200
H2371       H  0.25806826  0.49012448  0.36141038     0.38100
H2372       H  0.25539817  0.49923754  0.33296210     0.33500
C2373       C  0.30625623  0.42839747  0.36687403    -0.20200
C2374       C  0.29635438  0.40853763  0.37883791     0.36000
C2375       C  0.29214803  0.38739169  0.36594835    -0.26200
C2376       C  0.29837117  0.38555220  0.34163867     0.02400
C2377       C  0.30876561  0.40533738  0.32987382     0.27300
C2378       C  0.31207790  0.42676826  0.34252760    -0.25300
N2379       N  0.29024154  0.41005586  0.40384606    -0.82700
H2380       H  0.28375856  0.37235332  0.37483098     0.13100
C2381       C  0.29353612  0.36298068  0.32858792     0.02400
N2382       N  0.31622130  0.40345761  0.30525706    -0.81300
H2383       H  0.31986201  0.44208495  0.33354861     0.17900
C2384       C  0.28095589  0.36396289  0.30684538    -0.26100
C2385       C  0.27665740  0.34318426  0.29354165     0.35900
C2386       C  0.28426236  0.32094815  0.30250932    -0.20100
C2387       C  0.29630267  0.31973524  0.32447788    -0.25400
C2388       C  0.30132594  0.34061398  0.33753754     0.27300
H2389       H  0.27444091  0.38097340  0.30012944     0.13000
N2390       N  0.26414364  0.34462948  0.27118652    -0.82700
H2391       H  0.30234218  0.30250962  0.33111645     0.17900
N2392       N  0.31450853  0.33921933  0.35961377    -0.81300
H2393       H  0.24741428  0.35250318  0.27436228     0.33500
H2394       H  0.27379478  0.35592348  0.25982429     0.38000
H2395       H  0.31870618  0.32141463  0.36368470     0.33500
H2396       H  0.33077018  0.34810767  0.35709586     0.30200
H2397       H  0.32352164  0.41962974  0.29934413     0.33500
H2398       H  0.32995551  0.39069968  0.30438179     0.30200
H2399       H  0.28353530  0.39370382  0.40997008     0.38100
H2400       H  0.27639959  0.42260136  0.40564554     0.33500
C2401       C  0.18015218  0.26030637  0.30170041    -0.20200
C2402       C  0.16172205  0.27478908  0.29223645     0.36000
C2403       C  0.14043193  0.27783321  0.30535839    -0.26200
C2404       C  0.13738260  0.26672433  0.32762619     0.02400
C2405       C  0.15588584  0.25263612  0.33731946     0.27300
C2406       C  0.17716004  0.24960750  0.32426886    -0.25300
N2407       N  0.16476678  0.28643215  0.26950930    -0.82700
H2408       H  0.12608244  0.28877993  0.29819592     0.13100
C2409       C  0.11455077  0.26988403  0.34053424     0.02400
N2410       N  0.15280278  0.24120841  0.36016447    -0.81300
H2411       H  0.19121980  0.23829660  0.33145738     0.17900
C2412       C  0.09712888  0.25196300  0.33891153    -0.26100
C2413       C  0.07499984  0.25467253  0.35049539     0.35900
C2414       C  0.07019976  0.27564161  0.36380612    -0.20100
C2415       C  0.08785037  0.29337935  0.36581199    -0.25400
C2416       C  0.11010848  0.29064767  0.35427215     0.27300
H2417       H  0.10074945  0.23582897  0.32862794     0.13000
N2418       N  0.05769379  0.23580548  0.34933898    -0.82700
H2419       H  0.08416747  0.30941083  0.37621917     0.17900
N2420       N  0.12822551  0.30878190  0.35636508    -0.81300
H2421       H  0.05372864  0.23258587  0.33131412     0.33500
H2422       H  0.06552844  0.22029683  0.35634165     0.38000
H2423       H  0.12208459  0.32300496  0.36698749     0.33500
H2424       H  0.14277646  0.30122428  0.36541368     0.30200
H2425       H  0.16803308  0.23121494  0.36459775     0.33500
H2426       H  0.15122672  0.25469346  0.37313230     0.30200
H2427       H  0.17872014  0.29875682  0.27136625     0.38100
H2428       H  0.14946649  0.29631469  0.26509577     0.33500
C2429       C  0.98196853  0.27581216  0.36123677    -0.20200
C2430       C  0.98031594  0.26265315  0.33960914     0.36000
C2431       C  0.95823933  0.26096723  0.32773790    -0.26200
C2432       C  0.93764790  0.27198757  0.33709135     0.02400
C2433       C  0.93915925  0.28527248  0.35854054     0.27300
C2434       C  0.96124573  0.28695408  0.37043737    -0.25300
N2435       N  0.00072004  0.25030413  0.32998313    -0.82700
H2436       H  0.95702107  0.25045147  0.31141602     0.13100
C2437       C  0.91435935  0.26796880  0.32507787     0.02400
N2438       N  0.91825403  0.29699712  0.36811394    -0.81300
H2439       H  0.96227844  0.29725026  0.38689732     0.17900
C2440       C  0.89707509  0.25405308  0.33667505    -0.26100
C2441       C  0.87546625  0.24825514  0.32535196     0.35900
C2442       C  0.87075313  0.25675240  0.30200413    -0.20100
C2443       C  0.88813444  0.27076057  0.29038661    -0.25400
C2444       C  0.90983442  0.27663814  0.30182187     0.27300
H2445       H  0.90066582  0.24709558  0.35442558     0.13000
N2446       N  0.85877010  0.23292084  0.33731069    -0.82700
H2447       H  0.88466294  0.27735476  0.27248474     0.17900
N2448       N  0.92726856  0.29140587  0.29003134    -0.81300
H2449       H  0.86744161  0.21675994  0.34120149     0.33500
H2450       H  0.85392194  0.24105385  0.35352107     0.38000
H2451       H  0.92120472  0.29639598  0.27304605     0.33500
H2452       H  0.92890497  0.30721454  0.30001513     0.30200
H2453       H  0.92231483  0.30576331  0.38419051     0.33500
H2454       H  0.91316824  0.31028036  0.35595618     0.30200
H2455       H  0.99655418  0.23208190  0.32872518     0.38100
H2456       H  0.00378190  0.25668091  0.31265742     0.33500
C2457       C  0.06586971  0.11299498  0.20396273    -0.20200
C2458       C  0.08785039  0.10799017  0.19249969     0.36000
C2459       C  0.10877395  0.11910686  0.20057053    -0.26200
C2460       C  0.10839039  0.13432714  0.22064298     0.02400
C2461       C  0.08646284  0.13886717  0.23253188     0.27300
C2462       C  0.06534217  0.12867512  0.22363686    -0.25300
N2463       N  0.08901261  0.09169358  0.17262316    -0.82700
H2464       H  0.12540866  0.11580553  0.19106496     0.13100
C2465       C  0.13083195  0.14620781  0.22831961     0.02400
N2466       N  0.08582938  0.15329121  0.25393558    -0.81300
H2467       H  0.04857342  0.13203043  0.23288044     0.17900
C2468       C  0.13067259  0.17107895  0.23193600    -0.26100
C2469       C  0.15146147  0.18331205  0.23859051     0.35900
C2470       C  0.17341528  0.17067572  0.23978644    -0.20100
C2471       C  0.17352711  0.14566978  0.23669339    -0.25400
C2472       C  0.15234458  0.13322373  0.23148876     0.27300
H2473       H  0.11421173  0.18108922  0.22945525     0.13000
N2474       N  0.15028253  0.20847059  0.24424051    -0.82700
H2475       H  0.19023184  0.13581711  0.23791454     0.17900
N2476       N  0.15259673  0.10753017  0.22935993    -0.81300
H2477       H  0.15473471  0.21042123  0.26234157     0.33500
H2478       H  0.13278963  0.21495819  0.24242134     0.38000
H2479       H  0.16984142  0.10077799  0.23223346     0.33500
H2480       H  0.14182898  0.10071731  0.24306649     0.30200
H2481       H  0.06832288  0.15486868  0.26044946     0.33500
H2482       H  0.09567537  0.14428425  0.26705618     0.30200
H2483       H  0.09623691  0.10078918  0.15796400     0.38100
H2484       H  0.10075793  0.07778417  0.17711829     0.33500
C2485       C  0.97829840  0.10788238  0.20325972    -0.20200
C2486       C  0.96335034  0.09725471  0.22058707     0.36000
C2487       C  0.94159727  0.10835110  0.22659960    -0.26200
C2488       C  0.93441726  0.12964937  0.21544140     0.02400
C2489       C  0.94900184  0.13980843  0.19744712     0.27300
C2490       C  0.97106182  0.12898155  0.19180679    -0.25300
N2491       N  0.97069403  0.07567299  0.23255958    -0.82700
H2492       H  0.93052678  0.10076906  0.24060109     0.13100
C2493       C  0.91239706  0.14189582  0.22394724     0.02400
N2494       N  0.94134941  0.16105951  0.18508799    -0.81300
H2495       H  0.98257500  0.13687614  0.17833814     0.17900
C2496       C  0.91412806  0.16551284  0.23241934    -0.26100
C2497       C  0.89388294  0.17791052  0.24077212     0.35900
C2498       C  0.87132589  0.16651896  0.24026837    -0.20100
C2499       C  0.86978903  0.14248342  0.23289416    -0.25400
C2500       C  0.89011449  0.13003577  0.22467539     0.27300
H2501       H  0.93144061  0.17424370  0.23266024     0.13000
N2502       N  0.89614806  0.20197231  0.24982113    -0.82700
H2503       H  0.85250357  0.13370459  0.23251842     0.17900
N2504       N  0.88813465  0.10561107  0.21662360    -0.81300
H2505       H  0.91393025  0.20772116  0.24883456     0.33500
H2506       H  0.89160062  0.20170180  0.26800453     0.38000
H2507       H  0.87057727  0.09945353  0.21863335     0.33500
H2508       H  0.89191732  0.10527663  0.19827402     0.30200
H2509       H  0.95413571  0.16619584  0.17240842     0.33500
H2510       H  0.92580906  0.15678263  0.17557219     0.30200
H2511       H  0.98589339  0.07970945  0.24270748     0.38100
H2512       H  0.95753310  0.07008607  0.24464614     0.33500
C2513       C  0.98139667  0.67982665  0.36441033    -0.20200
C2514       C  0.96186616  0.69134633  0.37587735     0.36000
C2515       C  0.94010667  0.69387635  0.36354759    -0.26200
C2516       C  0.93747433  0.68517652  0.34009947     0.02400
C2517       C  0.95706288  0.67405447  0.32852225     0.27300
C2518       C  0.97884670  0.67164850  0.34074401    -0.25300
N2519       N  0.96423351  0.70072109  0.39979565    -0.82700
H2520       H  0.92515618  0.70288986  0.37215282     0.13100
C2521       C  0.91424720  0.68823645  0.32765943     0.02400
N2522       N  0.95462973  0.66494227  0.30451603    -0.81300
H2523       H  0.99372648  0.66274740  0.33191992     0.17900
C2524       C  0.91373198  0.70055654  0.30587094    -0.26100
C2525       C  0.89227821  0.70388525  0.29341484     0.35900
C2526       C  0.87063409  0.69472384  0.30283998    -0.20100
C2527       C  0.87113891  0.68255820  0.32487526    -0.25400
C2528       C  0.89277027  0.67911920  0.33732652     0.27300
H2529       H  0.93011597  0.70798578  0.29860723     0.13000
N2530       N  0.89254963  0.71736085  0.27160181    -0.82700
H2531       H  0.85464579  0.67564533  0.33237801     0.17900
N2532       N  0.89306396  0.66636446  0.35966648    -0.81300
H2533       H  0.89938131  0.73440270  0.27531475     0.33500
H2534       H  0.90417843  0.70882096  0.25957597     0.38000
H2535       H  0.87579145  0.66089078  0.36434786     0.33500
H2536       H  0.90320937  0.65077303  0.35713944     0.30200
H2537       H  0.97075554  0.65742472  0.29853857     0.33500
H2538       H  0.94211562  0.65104951  0.30495975     0.30200
H2539       H  0.97679511  0.71457063  0.39923495     0.38100
H2540       H  0.94812322  0.70838853  0.40562359     0.33500
C2541       C  0.18187323  0.68687441  0.30324272    -0.20200
C2542       C  0.17687668  0.69512459  0.32669085     0.36000
C2543       C  0.15488586  0.68945156  0.33736723    -0.26200
C2544       C  0.13775664  0.67550772  0.32537606     0.02400
C2545       C  0.14282760  0.66705243  0.30198408     0.27300
C2546       C  0.16473984  0.67304997  0.29108849    -0.25300
N2547       N  0.19376030  0.70994399  0.33930882    -0.82700
H2548       H  0.15078038  0.69660765  0.35497641     0.13100
C2549       C  0.11421060  0.67136817  0.33727510     0.02400
N2550       N  0.12579001  0.65240906  0.28941725    -0.81300
H2551       H  0.16857489  0.66670486  0.27310447     0.17900
C2552       C  0.09300181  0.67700188  0.32507687    -0.26100
C2553       C  0.07053981  0.67565174  0.33642245     0.35900
C2554       C  0.06928862  0.66969357  0.36112683    -0.20100
C2555       C  0.09059305  0.66344434  0.37305386    -0.25400
C2556       C  0.11285795  0.66374346  0.36132329     0.27300
H2557       H  0.09397743  0.68300156  0.30666638     0.13000
N2558       N  0.04923622  0.68072751  0.32288704    -0.82700
H2559       H  0.09000593  0.65829246  0.39173219     0.17900
N2560       N  0.13417793  0.65649815  0.37381984    -0.81300
H2561       H  0.05352804  0.68611925  0.30548146     0.33500
H2562       H  0.03988666  0.66461392  0.32106110     0.38000
H2563       H  0.13019352  0.65163441  0.39145280     0.33500
H2564       H  0.14080996  0.64113153  0.36529262     0.30200
H2565       H  0.13214163  0.64797391  0.27232353     0.33500
H2566       H  0.12413177  0.63633276  0.29882655     0.30200
H2567       H  0.19510540  0.72615181  0.33005916     0.38100
H2568       H  0.18747437  0.71416483  0.35647631     0.33500
C2569       C  0.02727022  0.91124369  0.19394644    -0.20200
C2570       C  0.04503806  0.92153828  0.17921635     0.36000
C2571       C  0.04505577  0.94644207  0.17577224    -0.26200
C2572       C  0.02759818  0.96094994  0.18662634     0.02400
C2573       C  0.00951864  0.95063952  0.20079859     0.27300
C2574       C  0.00938464  0.92582450  0.20409630    -0.25300
N2575       N  0.06284215  0.90672323  0.16779493    -0.82700
H2576       H  0.05878102  0.95463984  0.16479160     0.13100
C2577       C  0.02892141  0.98712140  0.18416899     0.02400
N2578       N  0.99180966  0.96552934  0.21232375    -0.81300
H2579       H  0.99581173  0.91797074  0.21550733     0.17900
C2580       C  0.01019264  0.99924114  0.17270816    -0.26100
C2581       C  0.00915912  0.02432774  0.17281010     0.35900
C2582       C  0.02715045  0.03733893  0.18484157    -0.20100
C2583       C  0.04661497  0.02511997  0.19511710    -0.25400
C2584       C  0.04757790  0.00005471  0.19507259     0.27300
H2585       H  0.99606700  0.98902272  0.16419516     0.13000
N2586       N  0.98988513  0.03659742  0.16093843    -0.82700
H2587       H  0.06049414  0.03506874  0.20432132     0.17900
N2588       N  0.06686768  0.98766739  0.20683529    -0.81300
H2589       H  0.97814739  0.02433093  0.15304812     0.33500
H2590       H  0.99735079  0.04654717  0.14696755     0.38000
H2591       H  0.07922986  0.99986786  0.21381933     0.33500
H2592       H  0.05963070  0.97849565  0.22144744     0.30200
H2593       H  0.97972621  0.95509748  0.22207025     0.33500
H2594       H  0.00066565  0.97640334  0.22475336     0.30200
H2595       H  0.05397799  0.89544210  0.15574253     0.38100
H2596       H  0.07457337  0.91716866  0.15763766     0.33500
C2597       C  0.98314798  0.83966227  0.21822549    -0.20200
C2598       C  0.98155262  0.81700010  0.22940596     0.36000
C2599       C  0.95903195  0.80706132  0.23418469    -0.26200
C2600       C  0.93797166  0.81927413  0.22820538     0.02400
C2601       C  0.93922368  0.84180615  0.21712091     0.27300
C2602       C  0.96175881  0.85179873  0.21226774    -0.25300
N2603       N  0.00259777  0.80396081  0.23614493    -0.82700
H2604       H  0.95795845  0.78961535  0.24259673     0.13100
C2605       C  0.91474000  0.80755547  0.23255786     0.02400
N2606       N  0.91761510  0.85434926  0.21077208    -0.81300
H2607       H  0.96248351  0.86913957  0.20364995     0.17900
C2608       C  0.90069545  0.81452290  0.25222753    -0.26100
C2609       C  0.87878796  0.80309229  0.25715666     0.35900
C2610       C  0.87092044  0.78435640  0.24190691    -0.20100
C2611       C  0.88520152  0.77761556  0.22219398    -0.25400
C2612       C  0.90697654  0.78902230  0.21737804     0.27300
H2613       H  0.90701232  0.82873790  0.26387526     0.13000
N2614       N  0.86519660  0.80977853  0.27805548    -0.82700
H2615       H  0.87927159  0.76342807  0.21031122     0.17900
N2616       N  0.92138785  0.78178413  0.19721538    -0.81300
H2617       H  0.87468151  0.82216990  0.28842539     0.33500
H2618       H  0.84982868  0.81874336  0.27221952     0.38000
H2619       H  0.91331937  0.76759933  0.18800709     0.33500
H2620       H  0.92203800  0.79619451  0.18531106     0.30200
H2621       H  0.92163200  0.87081837  0.20286266     0.33500
H2622       H  0.90880013  0.84416851  0.19774405     0.30200
H2623       H  0.00192061  0.80101087  0.25462448     0.38100
H2624       H  0.00226819  0.78730368  0.22751034     0.33500
C2625       C  0.07203203  0.83952875  0.21759307    -0.20200
C2626       C  0.07487558  0.82351776  0.23695924     0.36000
C2627       C  0.09750277  0.81347586  0.24143141    -0.26200
C2628       C  0.11731663  0.81919410  0.22712335     0.02400
C2629       C  0.11453176  0.83511889  0.20776876     0.27300
C2630       C  0.09192682  0.84517036  0.20325351    -0.25300
N2631       N  0.05497426  0.81777986  0.25224851    -0.82700
H2632       H  0.09971146  0.80097581  0.25608627     0.13100
C2633       C  0.14053699  0.80730512  0.23192283     0.02400
N2634       N  0.13466155  0.84099016  0.19281292    -0.81300
H2635       H  0.08980248  0.85740772  0.18836711     0.17900
C2636       C  0.15094835  0.79323976  0.21381670    -0.26100
C2637       C  0.17212141  0.78041983  0.21794513     0.35900
C2638       C  0.18269684  0.78121798  0.24085081    -0.20100
C2639       C  0.17288044  0.79597312  0.25875529    -0.25400
C2640       C  0.15177729  0.80906209  0.25451346     0.27300
H2641       H  0.14231689  0.79201724  0.19648072     0.13000
N2642       N  0.18307434  0.76672361  0.19894556    -0.82700
H2643       H  0.18141275  0.79687960  0.27616073     0.17900
N2644       N  0.14159772  0.82394296  0.27301520    -0.81300
H2645       H  0.17302957  0.76800865  0.18320532     0.33500
H2646       H  0.19973229  0.77442393  0.19526351     0.38000
H2647       H  0.15198481  0.82313025  0.28856949     0.33500
H2648       H  0.14223747  0.84167768  0.26706946     0.30200
H2649       H  0.12951410  0.85269369  0.17915373     0.33500
H2650       H  0.14705868  0.85017911  0.20340956     0.30200
H2651       H  0.05000240  0.83344925  0.26133176     0.38100
H2652       H  0.06005182  0.80540782  0.26533321     0.33500
C2653       C  0.02890465  0.66280527  0.56594402    -0.20200
C2654       C  0.04627068  0.65053765  0.55209114     0.36000
C2655       C  0.04501029  0.65146974  0.52701830    -0.26200
C2656       C  0.02657740  0.66400577  0.51551791     0.02400
C2657       C  0.00865120  0.67546660  0.52922842     0.27300
C2658       C  0.01001317  0.67478126  0.55435221    -0.25300
N2659       N  0.06488826  0.63687091  0.56348497    -0.82700
H2660       H  0.05840406  0.64225732  0.51630533     0.13100
C2661       C  0.02655960  0.66507737  0.48904965     0.02400
N2662       N  0.98936843  0.68795996  0.51758242    -0.81300
H2663       H  0.99658038  0.68411921  0.56490114     0.17900
C2664       C  0.00762131  0.65472971  0.47628912    -0.26100
C2665       C  0.00733165  0.65497026  0.45113371     0.35900
C2666       C  0.02633874  0.66601214  0.43858059    -0.20100
C2667       C  0.04543323  0.67605605  0.45143211    -0.25400
C2668       C  0.04564586  0.67586260  0.47657163     0.27300
H2669       H  0.99319433  0.64617916  0.48602870     0.13000
N2670       N  0.98803234  0.64373535  0.43832852    -0.82700
H2671       H  0.05989889  0.68470693  0.44184749     0.17900
N2672       N  0.06498201  0.68683929  0.48954019    -0.81300
H2673       H  0.97547631  0.63661978  0.45024528     0.33500
H2674       H  0.99524197  0.62925016  0.42877627     0.38000
H2675       H  0.07763825  0.69391824  0.47771105     0.33500
H2676       H  0.05787577  0.70131427  0.49918442     0.30200
H2677       H  0.97758477  0.69527566  0.53024409     0.33500
H2678       H  0.99675622  0.70235660  0.50821590     0.30200
H2679       H  0.05669509  0.62278833  0.57266574     0.38100
H2680       H  0.07619401  0.62902141  0.55070758     0.33500
C2681       C  0.18705019  0.69470849  0.69950023    -0.20200
C2682       C  0.16449159  0.70407167  0.70660377     0.36000
C2683       C  0.14369764  0.69659905  0.69461517    -0.26200
C2684       C  0.14484892  0.68031692  0.67546126     0.02400
C2685       C  0.16730558  0.67123241  0.66809504     0.27300
C2686       C  0.18819546  0.67859442  0.68012322    -0.25300
N2687       N  0.16276870  0.72153922  0.72558061    -0.82700
H2688       H  0.12646247  0.70391292  0.69988860     0.13100
C2689       C  0.12234878  0.67399031  0.66270961     0.02400
N2690       N  0.16874265  0.65438997  0.64859964    -0.81300
H2691       H  0.20539834  0.67139507  0.67460787     0.17900
C2692       C  0.11975623  0.68032289  0.63861436    -0.26100
C2693       C  0.09786116  0.67722881  0.62658608     0.35900
C2694       C  0.07785176  0.66769031  0.63907894    -0.20100
C2695       C  0.08089989  0.66038745  0.66298264    -0.25400
C2696       C  0.10300908  0.66321899  0.67481400     0.27300
H2697       H  0.13469408  0.68855697  0.62938092     0.13000
N2698       N  0.09583450  0.68450104  0.60197107    -0.82700
H2699       H  0.06597150  0.65247558  0.67249238     0.17900
N2700       N  0.10594185  0.65533585  0.69912775    -0.81300
H2701       H  0.11235015  0.69029464  0.59533395     0.33500
H2702       H  0.08434135  0.69931735  0.60143111     0.38000
H2703       H  0.09014875  0.64754453  0.70543840     0.33500
H2704       H  0.11897900  0.64183340  0.69911122     0.30200
H2705       H  0.18654163  0.64941413  0.64541522     0.33500
H2706       H  0.15974810  0.63886691  0.65387842     0.30200
H2707       H  0.14491880  0.72635999  0.72871229     0.38100
H2708       H  0.17149991  0.73705027  0.71982611     0.33500
C2709       C  0.88018136  0.69079052  0.70840222    -0.20200
C2710       C  0.89639685  0.70951033  0.70362358     0.36000
C2711       C  0.91727023  0.70465431  0.69031420    -0.26200
C2712       C  0.92229601  0.68141129  0.68204726     0.02400
C2713       C  0.90616681  0.66265956  0.68696166     0.27300
C2714       C  0.88502818  0.66759826  0.69989383    -0.25300
N2715       N  0.89148058  0.73336539  0.71222107    -0.82700
H2716       H  0.92975325  0.71897379  0.68645822     0.13100
C2717       C  0.94471808  0.67697863  0.66847283     0.02400
N2718       N  0.91147650  0.63871041  0.67896479    -0.81300
H2719       H  0.87241789  0.65333929  0.70355366     0.17900
C2720       C  0.96454250  0.66705522  0.68024069    -0.26100
C2721       C  0.98634991  0.66307410  0.66808206     0.35900
C2722       C  0.98857160  0.66999174  0.64381901    -0.20100
C2723       C  0.96834811  0.67949712  0.63203706    -0.25400
C2724       C  0.94641158  0.68274067  0.64401858     0.27300
H2725       H  0.96288094  0.66223031  0.69895815     0.13000
N2726       N  0.00592571  0.65151416  0.68013780    -0.82700
H2727       H  0.96961361  0.68455085  0.61335548     0.17900
N2728       N  0.92583676  0.69185401  0.63149205    -0.81300
H2729       H  0.00131634  0.64763328  0.69786883     0.33500
H2730       H  0.00884857  0.63502658  0.67163043     0.38000
H2731       H  0.93005929  0.69521227  0.61355496     0.33500
H2732       H  0.91286307  0.67837357  0.63139799     0.30200
H2733       H  0.89799773  0.62691895  0.68434934     0.33500
H2734       H  0.91141050  0.63875364  0.66023325     0.30200
H2735       H  0.87598905  0.73949280  0.70366531     0.38100
H2736       H  0.90526639  0.74503886  0.70737898     0.33500
C2737       C  0.18301560  0.78808967  0.75346240    -0.20200
C2738       C  0.16482876  0.78349903  0.77043505     0.36000
C2739       C  0.14327476  0.79628920  0.76935879    -0.26200
C2740       C  0.13959480  0.81358947  0.75166245     0.02400
C2741       C  0.15762578  0.81837213  0.73471761     0.27300
C2742       C  0.17931141  0.80572657  0.73592393    -0.25300
N2743       N  0.16828054  0.76619274  0.78902720    -0.82700
H2744       H  0.12929832  0.79266807  0.78234373     0.13100
C2745       C  0.11633428  0.82588761  0.75032576     0.02400
N2746       N  0.15359777  0.83570677  0.71613461    -0.81300
H2747       H  0.19310780  0.80922298  0.72272306     0.17900
C2748       C  0.11495268  0.85037565  0.75580510    -0.26100
C2749       C  0.09335457  0.86296993  0.75304043     0.35900
C2750       C  0.07304646  0.85069519  0.74440074    -0.20100
C2751       C  0.07427424  0.82596891  0.73997556    -0.25400
C2752       C  0.09585732  0.81345295  0.74260069     0.27300
H2753       H  0.13081542  0.85963568  0.76203983     0.13000
N2754       N  0.09189920  0.88800048  0.75911681    -0.82700
H2755       H  0.05857256  0.81657801  0.73353494     0.17900
N2756       N  0.09728618  0.78834308  0.73685010    -0.81300
H2757       H  0.10845920  0.89423607  0.76520954     0.33500
H2758       H  0.07995026  0.88973305  0.77347452     0.38000
H2759       H  0.08055834  0.78188267  0.73150173     0.33500
H2760       H  0.10869191  0.78645511  0.72207720     0.30200
H2761       H  0.16869788  0.83714471  0.70513137     0.33500
H2762       H  0.13974265  0.82929157  0.70530071     0.30200
H2763       H  0.15476358  0.75333893  0.78759460     0.38100
H2764       H  0.16635532  0.77489163  0.80554827     0.33500
C2765       C  0.88021987  0.78374082  0.76452214    -0.20200
C2766       C  0.87883184  0.80896689  0.76708230     0.36000
C2767       C  0.89974722  0.82265412  0.76506513    -0.26200
C2768       C  0.92192478  0.81169972  0.76068978     0.02400
C2769       C  0.92354046  0.78649332  0.75930284     0.27300
C2770       C  0.90265706  0.77274077  0.76144939    -0.25300
N2771       N  0.85623320  0.82059785  0.77166122    -0.82700
H2772       H  0.89876453  0.84200314  0.76660608     0.13100
C2773       C  0.94319802  0.82684543  0.75657737     0.02400
N2774       N  0.94626507  0.77504009  0.75499969    -0.81300
H2775       H  0.90379327  0.75342567  0.75967292     0.17900
C2776       C  0.96311982  0.82424816  0.77153821    -0.26100
C2777       C  0.98433098  0.83682311  0.76703524     0.35900
C2778       C  0.98561245  0.85222677  0.74699643    -0.20100
C2779       C  0.96520484  0.85578296  0.73278424    -0.25400
C2780       C  0.94401347  0.84307317  0.73726775     0.27300
H2781       H  0.96214741  0.81212927  0.78663882     0.13000
N2782       N  0.00452205  0.83402295  0.78276467    -0.82700
H2783       H  0.96609116  0.86772819  0.71754598     0.17900
N2784       N  0.92356644  0.84601243  0.72190403    -0.81300
H2785       H  0.00065214  0.82189281  0.79645998     0.33500
H2786       H  0.00757397  0.85058845  0.79101618     0.38000
H2787       H  0.92706497  0.85869466  0.70861568     0.33500
H2788       H  0.92069310  0.82969724  0.71310509     0.30200
H2789       H  0.94435250  0.75640777  0.75451702     0.33500
H2790       H  0.95213152  0.78018453  0.73798286     0.30200
H2791       H  0.85017689  0.81489565  0.78843456     0.38100
H2792       H  0.85835796  0.83917813  0.77285142     0.33500
C2793       C  0.02909920  0.28047759  0.56521676    -0.20200
C2794       C  0.04712778  0.27109959  0.54995192     0.36000
C2795       C  0.04579545  0.27489983  0.52514126    -0.26200
C2796       C  0.02661303  0.28756151  0.51502856     0.02400
C2797       C  0.00845067  0.29676639  0.53005808     0.27300
C2798       C  0.00989993  0.29318781  0.55495905    -0.25300
N2799       N  0.06637208  0.25693885  0.55933862    -0.82700
H2800       H  0.05951869  0.26731656  0.51359884     0.13100
C2801       C  0.02509784  0.28957908  0.48854798     0.02400
N2802       N  0.98859197  0.30965994  0.51993552    -0.81300
H2803       H  0.99596247  0.30047723  0.56640393     0.17900
C2804       C  0.00600608  0.27859504  0.47658923    -0.26100
C2805       C  0.00516718  0.27775397  0.45150540     0.35900
C2806       C  0.02383285  0.28807037  0.43787642    -0.20100
C2807       C  0.04250851  0.29991820  0.44991517    -0.25400
C2808       C  0.04318569  0.30097241  0.47513378     0.27300
H2809       H  0.99205745  0.26981662  0.48681374     0.13000
N2810       N  0.98583466  0.26538222  0.44006925    -0.82700
H2811       H  0.05668460  0.30824240  0.43963497     0.17900
N2812       N  0.06218662  0.31341429  0.48722466    -0.81300
H2813       H  0.96978678  0.27355850  0.44534675     0.33500
H2814       H  0.98571454  0.24770474  0.44621988     0.38000
H2815       H  0.07400286  0.32092883  0.47481261     0.33500
H2816       H  0.05448099  0.32770609  0.49668658     0.30200
H2817       H  0.97669286  0.31515818  0.53337378     0.33500
H2818       H  0.99535560  0.32523838  0.51211383     0.30200
H2819       H  0.08251995  0.26507211  0.55453470     0.38100
H2820       H  0.06579288  0.24004807  0.55117528     0.33500
C2821       C  0.07454044  0.26530435  0.63927475    -0.20200
C2822       C  0.07696541  0.25164223  0.66039649     0.36000
C2823       C  0.09948420  0.24953717  0.67137322    -0.26200
C2824       C  0.11967547  0.26070429  0.66152976     0.02400
C2825       C  0.11742258  0.27423146  0.64042596     0.27300
C2826       C  0.09494233  0.27624245  0.62941306    -0.25300
N2827       N  0.05683003  0.23939234  0.67043671    -0.82700
H2828       H  0.10125470  0.23900835  0.68755340     0.13100
C2829       C  0.14315587  0.25833627  0.67347186     0.02400
N2830       N  0.13795526  0.28613248  0.63048623    -0.81300
H2831       H  0.09327639  0.28689215  0.61330624     0.17900
C2832       C  0.16173580  0.24604275  0.66174103    -0.23700
C2833       C  0.18440255  0.24391520  0.67229374     0.35900
C2834       C  0.18866618  0.25452167  0.69488692    -0.20100
C2835       C  0.16994304  0.26668220  0.70663057    -0.25400
C2836       C  0.14725980  0.26883541  0.69606973     0.27300
H2837       H  0.15851721  0.23783558  0.64441184     0.13000
N2838       N  0.20267764  0.23017942  0.66045174    -0.82700
H2839       H  0.17306520  0.27464289  0.72408551     0.17900
N2840       N  0.12843305  0.28181087  0.70805860    -0.81300
H2841       H  0.20566382  0.23771012  0.64358623     0.33500
H2842       H  0.19627631  0.21275812  0.65790791     0.38000
H2843       H  0.13431029  0.28819199  0.72467337     0.33500
H2844       H  0.12444622  0.29687749  0.69769940     0.30200
H2845       H  0.13330078  0.29534836  0.61488796     0.33500
H2846       H  0.14352215  0.29905511  0.64288536     0.30200
H2847       H  0.05447439  0.24545540  0.68803545     0.38100
H2848       H  0.06090019  0.22109643  0.67104796     0.33500
C2849       C  0.87259478  0.25974203  0.69816500    -0.20200
C2850       C  0.88915951  0.27592079  0.70831205     0.36000
C2851       C  0.91086666  0.28064503  0.69641872    -0.26200
C2852       C  0.91647062  0.26921344  0.67469810     0.02400
C2853       C  0.89977548  0.25342029  0.66424367     0.27300
C2854       C  0.87791705  0.24901531  0.67597769    -0.25300
N2855       N  0.88401199  0.28756560  0.73066003    -0.82700
H2856       H  0.92368411  0.29277316  0.70448957     0.13100
C2857       C  0.94066280  0.27213964  0.66411509     0.02400
N2858       N  0.90548785  0.24126148  0.64219918    -0.81300
H2859       H  0.86538828  0.23637317  0.66824806     0.17900
C2860       C  0.95864058  0.25573460  0.67033389    -0.26100
C2861       C  0.98141616  0.25674021  0.65970987     0.35900
C2862       C  0.98632450  0.27426888  0.64225250    -0.20100
C2863       C  0.96850060  0.29117895  0.63656204    -0.25400
C2864       C  0.94572823  0.29038941  0.64747367     0.27300
H2865       H  0.95480710  0.24175716  0.68321059     0.13000
N2866       N  0.99916323  0.23929663  0.66601741    -0.82700
H2867       H  0.97230120  0.30489490  0.62340444     0.17900
N2868       N  0.92776622  0.30794937  0.64172708    -0.81300
H2869       H  0.00217873  0.24058443  0.68446293     0.33500
H2870       H  0.99223894  0.22227432  0.66241285     0.38000
H2871       H  0.93453590  0.32046502  0.62959082     0.33500
H2872       H  0.91376118  0.29911256  0.63302356     0.30200
H2873       H  0.89156060  0.22979914  0.63720442     0.33500
H2874       H  0.90677590  0.25421030  0.62877845     0.30200
H2875       H  0.89767299  0.28326135  0.74271115     0.38100
H2876       H  0.88440404  0.30608590  0.72788846     0.33500
C2877       C  0.03769166  0.04502138  0.69014342    -0.20200
C2878       C  0.01997516  0.03137893  0.67836136     0.36000
C2879       C  0.01905780  0.00656624  0.68209124    -0.26200
C2880       C  0.03544869  0.99535733  0.69735768     0.02400
C2881       C  0.05364184  0.00876949  0.70848777     0.27300
C2882       C  0.05485525  0.03351206  0.70442471    -0.25300
N2883       N  0.00266924  0.04290566  0.66318494    -0.82700
H2884       H  0.00520496  0.99598182  0.67357494     0.13100
C2885       C  0.03271065  0.96969369  0.70250797     0.02400
N2886       N  0.07011063  0.99733628  0.72463676    -0.81300
H2887       H  0.06816393  0.04405679  0.71381358     0.17900
C2888       C  0.04919437  0.95338453  0.69281909    -0.26100
C2889       C  0.04795143  0.92894532  0.69849392     0.35900
C2890       C  0.02983692  0.92090586  0.71424094    -0.20100
C2891       C  0.01285407  0.93723897  0.72318049    -0.25400
C2892       C  0.01434208  0.96167325  0.71777050     0.27300
H2893       H  0.06319702  0.95984658  0.68104348     0.13000
N2894       N  0.06499684  0.91235247  0.68843021    -0.82700
H2895       H  0.99911954  0.93114012  0.73544965     0.17900
N2896       N  0.99780749  0.97849881  0.72830577    -0.81300
H2897       H  0.07724065  0.92128675  0.67745521     0.33500
H2898       H  0.05557133  0.90054158  0.67735829     0.38000
H2899       H  0.98537812  0.96963784  0.73912827     0.33500
H2900       H  0.00758301  0.98976461  0.73964444     0.30200
H2901       H  0.08238120  0.00975906  0.73138342     0.33500
H2902       H  0.06024963  0.99116216  0.73930730     0.30200
H2903       H  0.01193862  0.05025863  0.64868882     0.38100
H2904       H  0.99073256  0.03035221  0.65608589     0.33500
C2905       C  0.07488755  0.12310929  0.70381073    -0.20200
C2906       C  0.07585536  0.13808988  0.72427868     0.36000
C2907       C  0.09713499  0.15015916  0.72958145    -0.26200
C2908       C  0.11744699  0.14700418  0.71525116     0.02400
C2909       C  0.11648201  0.13247597  0.69461010     0.27300
C2910       C  0.09510609  0.12056339  0.68906253    -0.25300
N2911       N  0.05569317  0.14002160  0.74026396    -0.82700
H2912       H  0.09828013  0.16119334  0.74556495     0.13100
C2913       C  0.14017289  0.15739983  0.72328906     0.02400
N2914       N  0.13735794  0.12959918  0.67974122    -0.81300
H2915       H  0.09426893  0.10904890  0.67340519     0.17900
C2916       C  0.15799609  0.14197441  0.73184701    -0.26100
C2917       C  0.17994264  0.15088194  0.73962242     0.35900
C2918       C  0.18410135  0.17585570  0.73908364    -0.20100
C2919       C  0.16580668  0.19134845  0.73123691    -0.25400
C2920       C  0.14388144  0.18230319  0.72311016     0.27300
H2921       H  0.15480601  0.12282530  0.73239333     0.13000
N2922       N  0.19728791  0.13421076  0.74855726    -0.82700
H2923       H  0.16894730  0.21050081  0.73057771     0.17900
N2924       N  0.12555471  0.19815316  0.71433225    -0.81300
H2925       H  0.21223748  0.13412565  0.73729326     0.33500
H2926       H  0.20239176  0.13972551  0.76571809     0.38000
H2927       H  0.13115506  0.21598736  0.71550145     0.33500
H2928       H  0.12318416  0.19443381  0.69611268     0.30200
H2929       H  0.13366672  0.11829225  0.66523769     0.33500
H2930       H  0.14148342  0.14637937  0.67257100     0.30200
H2931       H  0.05302813  0.12316910  0.74794946     0.38100
H2932       H  0.05942679  0.15178876  0.75438761     0.33500
C2933       C  0.87728336  0.16511917  0.74422015    -0.20200
C2934       C  0.89753143  0.16984405  0.75863867     0.36000
C2935       C  0.91962241  0.15949744  0.75243826    -0.26200
C2936       C  0.92164048  0.14458369  0.73230689     0.02400
C2937       C  0.90138414  0.13930399  0.71832633     0.27300
C2938       C  0.87934280  0.14949800  0.72452810    -0.25300
N2939       N  0.89561292  0.18510427  0.77938093    -0.82700
H2940       H  0.93535513  0.16312985  0.76319195     0.13100
C2941       C  0.94512281  0.13475770  0.72556795     0.02400
N2942       N  0.90347006  0.12405447  0.69757343    -0.81300
H2943       H  0.86392078  0.14600121  0.71329140     0.17900
C2944       C  0.94831176  0.10993486  0.72591544    -0.26100
C2945       C  0.96941226  0.09943776  0.71728223     0.35900
C2946       C  0.98808391  0.11437142  0.70874304    -0.20100
C2947       C  0.98490033  0.13939869  0.70900566    -0.25400
C2948       C  0.96345778  0.14973779  0.71710703     0.27300
H2949       H  0.93392942  0.09867728  0.73243408     0.13000
N2950       N  0.97184094  0.07376826  0.71752912    -0.82700
H2951       H  0.99906164  0.15096351  0.70258294     0.17900
N2952       N  0.96005244  0.17529320  0.71648217    -0.81300
H2953       H  0.97054975  0.06784470  0.69978347     0.33500
H2954       H  0.95750911  0.06587854  0.72661224     0.38000
H2955       H  0.97535937  0.18376257  0.70984959     0.33500
H2956       H  0.94626814  0.17889429  0.70434089     0.30200
H2957       H  0.88682458  0.12186409  0.68930472     0.33500
H2958       H  0.91449470  0.13273340  0.68519541     0.30200
H2959       H  0.88418246  0.17670485  0.79158420     0.38100
H2960       H  0.91220970  0.18678545  0.78786757     0.33500
C2961       C  0.37807542  0.01697541  0.30887903    -0.20200
C2962       C  0.35743932  0.02361235  0.32207194     0.36000
C2963       C  0.34610505  0.04574708  0.31730861    -0.26200
C2964       C  0.35476452  0.06115278  0.29944685     0.02400
C2965       C  0.37514921  0.05435406  0.28609764     0.27300
C2966       C  0.38676097  0.03255039  0.29117826    -0.25300
N2967       N  0.34862149  0.00840164  0.34083102    -0.82700
H2968       H  0.33046091  0.05106768  0.32756590     0.13100
C2969       C  0.34223284  0.08425372  0.29459231     0.02400
N2970       N  0.38379193  0.06952094  0.26722194    -0.81300
H2971       H  0.40247636  0.02743635  0.28091862     0.17900
C2972       C  0.35351821  0.10598035  0.30021642    -0.26100
C2973       C  0.34261379  0.12814505  0.29503587     0.35900
C2974       C  0.32000057  0.12884795  0.28366065    -0.20100
C2975       C  0.30849356  0.10690365  0.27862164    -0.25400
C2976       C  0.31945470  0.08470512  0.28377533     0.27300
H2977       H  0.37097404  0.10573143  0.30868113     0.13000
N2978       N  0.35456394  0.14985603  0.30161249    -0.82700
H2979       H  0.29117068  0.10697115  0.26990910     0.17900
N2980       N  0.30781936  0.06258924  0.27755605    -0.81300
H2981       H  0.35770357  0.14946783  0.32007197     0.33500
H2982       H  0.37113576  0.15018774  0.29287529     0.38000
H2983       H  0.29112841  0.06593222  0.26976546     0.33500
H2984       H  0.31826838  0.05409387  0.26445556     0.30200
H2985       H  0.39907621  0.06207603  0.25925643     0.33500
H2986       H  0.37061186  0.07005158  0.25393961     0.30200
H2987       H  0.34157017  0.99303946  0.33277005     0.38100
H2988       H  0.33436153  0.01667394  0.34982507     0.33500
C2989       C  0.32697518  0.81422271  0.29262519    -0.20200
C2990       C  0.31445273  0.83182628  0.30609131     0.36000
C2991       C  0.32558091  0.85380334  0.31121790    -0.26200
C2992       C  0.34873906  0.85876774  0.30292252     0.02400
C2993       C  0.36138495  0.84116221  0.28977565     0.27300
C2994       C  0.35050016  0.81894646  0.28506585    -0.25300
N2995       N  0.29044154  0.82745662  0.31434797    -0.82700
H2996       H  0.31604210  0.86732460  0.32148979     0.13100
C2997       C  0.35915383  0.88282598  0.30742537     0.02400
N2998       N  0.38491320  0.84621250  0.28061680    -0.81300
H2999       H  0.36003743  0.80567856  0.27447296     0.17900
C3000       C  0.38041214  0.88481083  0.32055651    -0.26100
C3001       C  0.39106252  0.90724670  0.32471884     0.35900
C3002       C  0.38023235  0.92826281  0.31535306    -0.20100
C3003       C  0.35856844  0.92618699  0.30273340    -0.25400
C3004       C  0.34805474  0.90369189  0.29849143     0.27300
H3005       H  0.38870709  0.86872741  0.32759863     0.13000
N3006       N  0.41281171  0.90867349  0.33841937    -0.82700
H3007       H  0.35026536  0.94206547  0.29528757     0.17900
N3008       N  0.32645614  0.90185429  0.28461029    -0.81300
H3009       H  0.41860625  0.89160474  0.34353722     0.33500
H3010       H  0.40891100  0.91805595  0.35420751     0.38000
H3011       H  0.32059432  0.91881521  0.27924021     0.33500
H3012       H  0.33055688  0.89231434  0.26896049     0.30200
H3013       H  0.39171534  0.83143132  0.27122125     0.33500
H3014       H  0.38325106  0.86011017  0.26820407     0.30200
H3015       H  0.29116428  0.81335301  0.32661068     0.38100
H3016       H  0.28371774  0.84234227  0.32363732     0.33500
C3017       C  0.23745581  0.01672774  0.13721739    -0.20200
C3018       C  0.23663242  0.02075978  0.16213744     0.36000
C3019       C  0.23926155  0.04405166  0.17103222    -0.26200
C3020       C  0.24261806  0.06338485  0.15546336     0.02400
C3021       C  0.24220458  0.05977614  0.13055842     0.27300
C3022       C  0.23957548  0.03644969  0.12163815    -0.25300
N3023       N  0.23318331  0.00134987  0.17848512    -0.82700
H3024       H  0.23927748  0.04700357  0.19024330     0.13100
C3025       C  0.24744856  0.08712305  0.16573166     0.02400
N3026       N  0.24485249  0.07974135  0.11454655    -0.81300
H3027       H  0.24003956  0.03366463  0.10242513     0.17900
C3028       C  0.26995538  0.09763191  0.16205804    -0.26100
C3029       C  0.27596792  0.11921117  0.17349847     0.35900
C3030       C  0.25908665  0.12995680  0.18903910    -0.20100
C3031       C  0.23647046  0.11961939  0.19221106    -0.25400
C3032       C  0.23036685  0.09840807  0.18047489     0.27300
H3033       H  0.28298316  0.08864979  0.15071243     0.13000
N3034       N  0.29937802  0.12945547  0.17038173    -0.82700
H3035       H  0.22343951  0.12825779  0.20382723     0.17900
N3036       N  0.20697653  0.08815039  0.18352713    -0.81300
H3037       H  0.31006216  0.11830838  0.15967052     0.33500
H3038       H  0.29734170  0.14541464  0.16084764     0.38000
H3039       H  0.19658617  0.09871412  0.19507617     0.33500
H3040       H  0.19846291  0.08850991  0.16685934     0.30200
H3041       H  0.24428939  0.07397844  0.09670697     0.33500
H3042       H  0.23008416  0.09104989  0.11707143     0.30200
H3043       H  0.24782099  0.00087564  0.19013925     0.38100
H3044       H  0.21782447  0.00497705  0.18863233     0.33500
C3045       C  0.27665577  0.81905278  0.19936056    -0.20200
C3046       C  0.28162395  0.84031512  0.21221688     0.36000
C3047       C  0.27951225  0.86246102  0.20062976    -0.26200
C3048       C  0.27274967  0.86375453  0.17648863     0.02400
C3049       C  0.26910896  0.84243572  0.16328040     0.27300
C3050       C  0.27120152  0.82025519  0.17486714    -0.25300
N3051       N  0.28886022  0.83932247  0.23693160    -0.82700
H3052       H  0.28289103  0.87885741  0.21051356     0.13100
C3053       C  0.26840175  0.88754233  0.16560661     0.02400
N3054       N  0.26267159  0.84342181  0.13836495    -0.81300
H3055       H  0.26763339  0.80390501  0.16496724     0.17900
C3056       C  0.28056044  0.89383491  0.14455388    -0.26100
C3057       C  0.27507347  0.91516243  0.13259074     0.35900
C3058       C  0.25759890  0.93076591  0.14210681    -0.20100
C3059       C  0.24651919  0.92527310  0.16393392    -0.25400
C3060       C  0.25137276  0.90352822  0.17557231     0.27300
H3061       H  0.29396788  0.88186077  0.13707356     0.13000
N3062       N  0.28728087  0.92096794  0.11078498    -0.82700
H3063       H  0.23303677  0.93731454  0.17116895     0.17900
N3064       N  0.23839736  0.89716913  0.19689274    -0.81300
H3065       H  0.30564992  0.92154519  0.11434840     0.33500
H3066       H  0.28424582  0.90714509  0.09846870     0.38000
H3067       H  0.22655014  0.91087577  0.20183973     0.33500
H3068       H  0.22791007  0.88220519  0.19282004     0.30200
H3069       H  0.26108961  0.82616402  0.13120202     0.33500
H3070       H  0.24574446  0.85139393  0.13721326     0.30200
H3071       H  0.30531323  0.83033917  0.23762160     0.38100
H3072       H  0.29182160  0.85654481  0.24373298     0.33500
C3073       C  0.67131426  0.01452320  0.69620298    -0.20200
C3074       C  0.69443833  0.01811720  0.68657146     0.36000
C3075       C  0.70514013  0.04086244  0.68843868    -0.26200
C3076       C  0.69316263  0.06008845  0.69958402     0.02400
C3077       C  0.66991959  0.05662058  0.70879751     0.27300
C3078       C  0.65918221  0.03396266  0.70684676    -0.25300
N3079       N  0.70679184  0.99884542  0.67459654    -0.82700
H3080       H  0.72295622  0.04364744  0.68125463     0.13100
C3081       C  0.70573392  0.08328269  0.70312916     0.02400
N3082       N  0.65754362  0.07599978  0.72059329    -0.81300
H3083       H  0.64141076  0.03133216  0.71419528     0.17900
C3084       C  0.69575312  0.10462552  0.69421100    -0.26100
C3085       C  0.70627362  0.12706504  0.69914434     0.35900
C3086       C  0.72742887  0.12805618  0.71302020    -0.20100
C3087       C  0.73763014  0.10651634  0.72127690    -0.25400
C3088       C  0.72686609  0.08428672  0.71682059     0.27300
H3089       H  0.67950856  0.10374853  0.68364682     0.13000
N3090       N  0.69554853  0.14868321  0.69015436    -0.82700
H3091       H  0.75366808  0.10704259  0.73217442     0.17900
N3092       N  0.73686097  0.06277418  0.72688740    -0.81300
H3093       H  0.67990960  0.14480199  0.68062834     0.33500
H3094       H  0.70753142  0.15620090  0.67790724     0.38000
H3095       H  0.75247353  0.06657522  0.73648375     0.33500
H3096       H  0.72450352  0.05612036  0.73927459     0.30200
H3097       H  0.64056754  0.07055521  0.72628404     0.33500
H3098       H  0.66719073  0.08038803  0.73603482     0.30200
H3099       H  0.69693015  0.99441322  0.65930192     0.38100
H3100       H  0.72361481  0.00445304  0.66861558     0.33500
C3101       C  0.67334235  0.92551870  0.69705654    -0.20200
C3102       C  0.66375494  0.90366418  0.68847836     0.36000
C3103       C  0.67579781  0.88202471  0.69278224    -0.26200
C3104       C  0.69748303  0.88151111  0.70531700     0.02400
C3105       C  0.70763098  0.90325211  0.71333458     0.27300
C3106       C  0.69555846  0.92504636  0.70896642    -0.25300
N3107       N  0.64193084  0.90325339  0.67503270    -0.82700
H3108       H  0.66813334  0.86542634  0.68622855     0.13100
C3109       C  0.70913315  0.85798265  0.71001890     0.02400
N3110       N  0.72986211  0.90304555  0.72630182    -0.81300
H3111       H  0.70320116  0.94162072  0.71557062     0.17900
C3112       C  0.73174464  0.85299839  0.70014409    -0.26100
C3113       C  0.74332645  0.83094802  0.70438266     0.35900
C3114       C  0.73230129  0.81382661  0.71942640    -0.20100
C3115       C  0.70919062  0.81844168  0.72829617    -0.25400
C3116       C  0.69751323  0.84030911  0.72379288     0.27300
H3117       H  0.74026433  0.86631627  0.68893402     0.13000
N3118       N  0.76602126  0.82578590  0.69324762    -0.82700
H3119       H  0.70056369  0.80531792  0.73964942     0.17900
N3120       N  0.67409139  0.84484581  0.73358556    -0.81300
H3121       H  0.77156290  0.84019800  0.68268874     0.33500
H3122       H  0.76350172  0.81131605  0.68156008     0.38000
H3123       H  0.66794565  0.82994600  0.74307345     0.33500
H3124       H  0.67564972  0.85884583  0.74598166     0.30200
H3125       H  0.73496394  0.92049157  0.73085866     0.33500
H3126       H  0.72694529  0.89398947  0.74241106     0.30200
H3127       H  0.64552414  0.89553489  0.65830407     0.38100
H3128       H  0.62976617  0.89224014  0.68400345     0.33500
C3129       C  0.81967821  0.01664824  0.87071792    -0.20200
C3130       C  0.83114233  0.03842419  0.87644237     0.36000
C3131       C  0.82562730  0.05913201  0.86344521    -0.26200
C3132       C  0.80886120  0.05854287  0.84477749     0.02400
C3133       C  0.79778098  0.03669648  0.83859800     0.27300
C3134       C  0.80339488  0.01596279  0.85156443    -0.25300
N3135       N  0.84874479  0.03954957  0.89506068    -0.82700
H3136       H  0.83458340  0.07577291  0.86787671     0.13100
C3137       C  0.80322591  0.08090253  0.83172310     0.02400
N3138       N  0.78063316  0.03574081  0.81942067    -0.81300
H3139       H  0.79452860  0.99931221  0.84701648     0.17900
C3140       C  0.80692898  0.08170930  0.80695112    -0.26100
C3141       C  0.80184880  0.10243612  0.79382913     0.35900
C3142       C  0.79281432  0.12310987  0.80562854    -0.20100
C3143       C  0.78928049  0.12220479  0.83066112    -0.25400
C3144       C  0.79433407  0.10131196  0.84377823     0.27300
H3145       H  0.81403851  0.06611836  0.79768989     0.13000
N3146       N  0.80611760  0.10225538  0.76851599    -0.82700
H3147       H  0.78265860  0.13784867  0.84015243     0.17900
N3148       N  0.79041380  0.10067154  0.86925195    -0.81300
H3149       H  0.79595080  0.08850126  0.76089234     0.33500
H3150       H  0.82422751  0.09836216  0.76561080     0.38000
H3151       H  0.78396969  0.11718070  0.87545299     0.33500
H3152       H  0.77699414  0.08808109  0.87259788     0.30200
H3153       H  0.77428684  0.01827758  0.81705939     0.33500
H3154       H  0.76591476  0.04623939  0.82447330     0.30200
H3155       H  0.86480606  0.04555954  0.88756359     0.38100
H3156       H  0.84307340  0.05221315  0.90772452     0.33500
C3157       C  0.81923996  0.92915066  0.87503271    -0.20200
C3158       C  0.80760033  0.91033005  0.88711529     0.36000
C3159       C  0.80344679  0.88874424  0.87495738    -0.26200
C3160       C  0.81073933  0.88562626  0.85108369     0.02400
C3161       C  0.82237849  0.90448347  0.83900017     0.27300
C3162       C  0.82634461  0.92613377  0.85109796    -0.25300
N3163       N  0.79932082  0.91346745  0.91133772    -0.82700
H3164       H  0.79390603  0.87447085  0.88394481     0.13100
C3165       C  0.80502887  0.86289586  0.83873732     0.02400
N3166       N  0.83005281  0.90159310  0.81453662    -0.81300
H3167       H  0.83524760  0.94067541  0.84188027     0.17900
C3168       C  0.79269415  0.86368611  0.81684688    -0.26100
C3169       C  0.78680438  0.84260721  0.80458840     0.35900
C3170       C  0.79276118  0.82040001  0.81487534    -0.20100
C3171       C  0.80449778  0.81949554  0.83702658    -0.25400
C3172       C  0.81110691  0.84056221  0.84891785     0.27300
H3173       H  0.78754820  0.88082738  0.80935589     0.13000
N3174       N  0.77477618  0.84361340  0.78183780    -0.82700
H3175       H  0.80942823  0.80228675  0.84456129     0.17900
N3176       N  0.82431918  0.83938129  0.87099330    -0.81300
H3177       H  0.77199665  0.86138901  0.77663794     0.33500
H3178       H  0.75784358  0.83595983  0.78401803     0.38000
H3179       H  0.82717918  0.82156663  0.87604359     0.33500
H3180       H  0.84120692  0.84680360  0.86788363     0.30200
H3181       H  0.83799469  0.91730545  0.80822461     0.33500
H3182       H  0.84327998  0.88829392  0.81416692     0.30200
H3183       H  0.78603359  0.92671562  0.91117862     0.38100
H3184       H  0.79116742  0.89782544  0.91755934     0.33500
C3185       C  0.33165009  0.33685416  0.04324114    -0.20200
C3186       C  0.33664613  0.31211254  0.04529137     0.36000
C3187       C  0.33147314  0.30031307  0.06683865    -0.26200
C3188       C  0.32149843  0.31266416  0.08638789     0.02400
C3189       C  0.31694471  0.33747925  0.08457151     0.27300
C3190       C  0.32229814  0.34935616  0.06309312    -0.25300
N3191       N  0.34729986  0.29911725  0.02567937    -0.82700
H3192       H  0.33545758  0.28137382  0.06851562     0.13100
C3193       C  0.31629819  0.29936845  0.10874502     0.02400
N3194       N  0.30652532  0.35039999  0.10437440    -0.81300
H3195       H  0.31845344  0.36834377  0.06163511     0.17900
C3196       C  0.32677806  0.30698476  0.13028608    -0.26100
C3197       C  0.32237575  0.29489147  0.15184929     0.35900
C3198       C  0.30688067  0.27495027  0.15187589    -0.20100
C3199       C  0.29704927  0.26683666  0.13015784    -0.25400
C3200       C  0.30147537  0.27892183  0.10860393     0.27300
H3201       H  0.33866707  0.32229777  0.13019011     0.13000
N3202       N  0.33386913  0.30253658  0.17360591    -0.82700
H3203       H  0.28521758  0.25146893  0.13010627     0.17900
N3204       N  0.29065624  0.27078722  0.08667119    -0.81300
H3205       H  0.34472045  0.31744367  0.17048029     0.33500
H3206       H  0.34525990  0.28869331  0.17909007     0.38000
H3207       H  0.28047161  0.25537354  0.08961584     0.33500
H3208       H  0.27876168  0.28410580  0.08099120     0.30200
H3209       H  0.30448540  0.36854147  0.10017738     0.33500
H3210       H  0.28931183  0.34361337  0.10715663     0.30200
H3211       H  0.36445602  0.30607525  0.02296055     0.38100
H3212       H  0.34954090  0.28104492  0.03005847     0.33500
C3213       C  0.33110012  0.33843939  0.95509334    -0.20200
C3214       C  0.34512451  0.34354628  0.93466512     0.36000
C3215       C  0.34011762  0.33181960  0.91291107    -0.26200
C3216       C  0.32170984  0.31487766  0.91138163     0.02400
C3217       C  0.30773119  0.30969790  0.93170401     0.27300
C3218       C  0.31264248  0.32145249  0.95343694    -0.25300
N3219       N  0.36475687  0.36008509  0.93624574    -0.82700
H3220       H  0.35086529  0.33552915  0.89717546     0.13100
C3221       C  0.31770470  0.30212393  0.88850651     0.02400
N3222       N  0.28867238  0.29249651  0.93012738    -0.81300
H3223       H  0.30178266  0.31761330  0.96906246     0.17900
C3224       C  0.32708612  0.27898408  0.88551747    -0.26100
C3225       C  0.32399668  0.26634339  0.86390121     0.35900
C3226       C  0.31091412  0.27705557  0.84507099    -0.20100
C3227       C  0.30155441  0.30030513  0.84823387    -0.25400
C3228       C  0.30480641  0.31293102  0.86978952     0.27300
H3229       H  0.33710582  0.27092230  0.90003807     0.13000
N3230       N  0.33448046  0.24295149  0.86087649    -0.82700
H3231       H  0.29131735  0.30852977  0.83395736     0.17900
N3232       N  0.29508655  0.33664885  0.87279742    -0.81300
H3233       H  0.34742034  0.24416541  0.84736827     0.33500
H3234       H  0.34350633  0.23774013  0.87642074     0.38000
H3235       H  0.28620913  0.34209502  0.85724681     0.33500
H3236       H  0.28214929  0.33590161  0.88633833     0.30200
H3237       H  0.28021792  0.29057278  0.94673804     0.33500
H3238       H  0.27580346  0.29934493  0.91838441     0.30200
H3239       H  0.37739592  0.35275575  0.94795292     0.38100
H3240       H  0.37326594  0.36178344  0.91963854     0.33500
C3241       C  0.16056927  0.18286427  0.03976010    -0.20200
C3242       C  0.17116634  0.20553584  0.04332683     0.36000
C3243       C  0.18068795  0.21122652  0.06580950    -0.26200
C3244       C  0.17982826  0.19474846  0.08462549     0.02400
C3245       C  0.16936116  0.17207740  0.08112813     0.27300
C3246       C  0.15947460  0.16645059  0.05869918    -0.25300
N3247       N  0.17186309  0.22280655  0.02426655    -0.82700
H3248       H  0.18890139  0.22857013  0.06874010     0.13100
C3249       C  0.19144826  0.20116035  0.10738941     0.02400
N3250       N  0.16918348  0.15484079  0.10020779    -0.81300
H3251       H  0.15132653  0.14907380  0.05580367     0.17900
C3252       C  0.17752649  0.20573806  0.12781524    -0.26100
C3253       C  0.18833419  0.21209226  0.14968690     0.35900
C3254       C  0.21356261  0.21452845  0.15073722    -0.20100
C3255       C  0.22721141  0.21040355  0.12984775    -0.25400
C3256       C  0.21646614  0.20325388  0.10840717     0.27300
H3257       H  0.15823035  0.20400271  0.12671470     0.13000
N3258       N  0.17383924  0.21538425  0.17076939    -0.82700
H3259       H  0.24652434  0.21218966  0.13029814     0.17900
N3260       N  0.23084338  0.19774634  0.08767362    -0.81300
H3261       H  0.15567515  0.21348549  0.16666236     0.33500
H3262       H  0.17802849  0.20153261  0.18263632     0.38000
H3263       H  0.24902375  0.20022601  0.09136948     0.33500
H3264       H  0.22866636  0.17951280  0.08386763     0.30200
H3265       H  0.16080261  0.13903614  0.09465465     0.33500
H3266       H  0.18698192  0.15034044  0.10395356     0.30200
H3267       H  0.15419194  0.22757979  0.02027837     0.38100
H3268       H  0.18043992  0.23848612  0.02987285     0.33500
C3269       C  0.16307175  0.18506303  0.95224349    -0.20200
C3270       C  0.18768789  0.18018096  0.94911279     0.36000
C3271       C  0.19907896  0.18723528  0.92785687    -0.26200
C3272       C  0.18664263  0.19985685  0.91001603     0.02400
C3273       C  0.16208009  0.20515140  0.91343500     0.27300
C3274       C  0.15045615  0.19724944  0.93430081    -0.25300
N3275       N  0.20096395  0.16784892  0.96740073    -0.82700
H3276       H  0.21774817  0.18264065  0.92509429     0.13100
C3277       C  0.19942337  0.20661469  0.88758037     0.02400
N3278       N  0.14914274  0.21885506  0.89590987    -0.81300
H3279       H  0.13163682  0.20131060  0.93694259     0.17900
C3280       C  0.18922695  0.20068665  0.86535141    -0.26100
C3281       C  0.20109878  0.20567430  0.84375658     0.35900
C3282       C  0.22404766  0.21616544  0.84438119    -0.20100
C3283       C  0.23428793  0.22221638  0.86653872    -0.25400
C3284       C  0.22201723  0.21800332  0.88813708     0.27300
H3285       H  0.17214446  0.19155006  0.86483226     0.13000
N3286       N  0.19024314  0.19942943  0.82123547    -0.82700
H3287       H  0.25184180  0.23045648  0.86694991     0.17900
N3288       N  0.23236766  0.22527598  0.91058903    -0.81300
H3289       H  0.17322651  0.19212657  0.82390822     0.33500
H3290       H  0.20070639  0.18598217  0.81331816     0.38000
H3291       H  0.24901557  0.23336761  0.90786670     0.33500
H3292       H  0.22116213  0.23835476  0.91809086     0.30200
H3293       H  0.13127969  0.22114541  0.90111535     0.33500
H3294       H  0.15675019  0.23594392  0.89535953     0.30200
H3295       H  0.19395779  0.15055676  0.96882872     0.38100
H3296       H  0.21893493  0.16593293  0.96243270     0.33500
C3297       C  0.71876747  0.61077828  0.05123467    -0.20200
C3298       C  0.73520912  0.62977470  0.05417532     0.36000
C3299       C  0.73648446  0.64180338  0.07625522    -0.26200
C3300       C  0.72153516  0.63551433  0.09534439     0.02400
C3301       C  0.70421987  0.61744029  0.09216975     0.27300
C3302       C  0.70324274  0.60493814  0.07017693    -0.25300
N3303       N  0.75102478  0.63637377  0.03495166    -0.82700
H3304       H  0.74960376  0.65585728  0.07882701     0.13100
C3305       C  0.72563266  0.64723923  0.11881681     0.02400
N3306       N  0.68763244  0.61208709  0.11111760    -0.81300
H3307       H  0.69025526  0.59074887  0.06771896     0.17900
C3308       C  0.71375352  0.66871013  0.12436632    -0.26100
C3309       C  0.71960058  0.68181443  0.14516417     0.35900
C3310       C  0.73775250  0.67332948  0.16053961    -0.20100
C3311       C  0.74920569  0.65148618  0.15516465    -0.25400
C3312       C  0.74338828  0.63841433  0.13440402     0.27300
H3313       H  0.70016662  0.67540292  0.11224536     0.13000
N3314       N  0.70691228  0.70345060  0.15097186    -0.82700
H3315       H  0.76315739  0.64488633  0.16692914     0.17900
N3316       N  0.75594568  0.61659971  0.12862675    -0.81300
H3317       H  0.69427586  0.70733481  0.13773793     0.33500
H3318       H  0.69732356  0.70012311  0.16671439     0.38000
H3319       H  0.76882275  0.61278983  0.14166635     0.33500
H3320       H  0.74354161  0.60261329  0.12912204     0.30200
H3321       H  0.67569577  0.59872183  0.10570376     0.33500
H3322       H  0.69739270  0.60510993  0.12546362     0.30200
H3323       H  0.76260355  0.62193205  0.03182014     0.38100
H3324       H  0.76173734  0.65089322  0.03994089     0.33500
C3325       C  0.72081593  0.61002353  0.96306800    -0.20200
C3326       C  0.71436319  0.59940680  0.94089579     0.36000
C3327       C  0.71728701  0.61244606  0.91958366    -0.26200
C3328       C  0.72722941  0.63551264  0.91970127     0.02400
C3329       C  0.73359736  0.64615526  0.94174248     0.27300
C3330       C  0.72989042  0.63351841  0.96316250    -0.25300
N3331       N  0.70510205  0.57539998  0.93993355    -0.82700
H3332       H  0.71228657  0.60435891  0.90263904     0.13100
C3333       C  0.73285647  0.64747108  0.89656483     0.02400
N3334       N  0.74466361  0.66939247  0.94222173    -0.81300
H3335       H  0.73512292  0.64175648  0.97995524     0.17900
C3336       C  0.72423709  0.67070707  0.89197197    -0.26100
C3337       C  0.73117734  0.68317134  0.87123207     0.35900
C3338       C  0.74710022  0.67232128  0.85477000    -0.20100
C3339       C  0.75468473  0.64863982  0.85883911    -0.25400
C3340       C  0.74790133  0.63618324  0.87955901     0.27300
H3341       H  0.71222731  0.67928811  0.90466624     0.13000
N3342       N  0.72162353  0.70657851  0.86673429    -0.82700
H3343       H  0.76665932  0.64001484  0.84614619     0.17900
N3344       N  0.75680104  0.61233542  0.88370369    -0.81300
H3345       H  0.72608284  0.71764213  0.88120282     0.33500
H3346       H  0.70295337  0.70526721  0.86606573     0.38000
H3347       H  0.76747560  0.60654457  0.86938782     0.33500
H3348       H  0.76789566  0.61297686  0.89876387     0.30200
H3349       H  0.74830589  0.67467321  0.95983398     0.33500
H3350       H  0.76121047  0.66789342  0.93352586     0.30200
H3351       H  0.68840792  0.57549615  0.94844123     0.38100
H3352       H  0.70212935  0.57004091  0.92221689     0.33500
C3353       C  0.89512928  0.77383782  0.05165863    -0.20200
C3354       C  0.90409536  0.77636048  0.07529737     0.36000
C3355       C  0.89120534  0.76698157  0.09468015    -0.26200
C3356       C  0.86946208  0.75513779  0.09117776     0.02400
C3357       C  0.86043949  0.75224175  0.06783767     0.27300
C3358       C  0.87328437  0.76165132  0.04833437    -0.25300
N3359       N  0.92609671  0.78862945  0.07997132    -0.82700
H3360       H  0.89796985  0.76946411  0.11271589     0.13100
C3361       C  0.85522267  0.74828238  0.11241242     0.02400
N3362       N  0.83816721  0.73993917  0.06411117    -0.81300
H3363       H  0.86611806  0.75933630  0.03046016     0.17900
C3364       C  0.83675614  0.76360417  0.11977454    -0.26100
C3365       C  0.82415885  0.75949040  0.14111520     0.35900
C3366       C  0.82987591  0.73921725  0.15523505    -0.20100
C3367       C  0.84833009  0.72370876  0.14765265    -0.25400
C3368       C  0.86099156  0.72800263  0.12623578     0.27300
H3369       H  0.83271611  0.77933524  0.10916162     0.13000
N3370       N  0.80619408  0.77634939  0.14889858    -0.82700
H3371       H  0.85274247  0.70814627  0.15835182     0.17900
N3372       N  0.87971883  0.71201324  0.11850093    -0.81300
H3373       H  0.80395477  0.79000707  0.13631181     0.33500
H3374       H  0.81251631  0.78454493  0.16452350     0.38000
H3375       H  0.88184064  0.69801881  0.13073381     0.33500
H3376       H  0.87424182  0.70419876  0.10236262     0.30200
H3377       H  0.83388989  0.73944859  0.04588190     0.33500
H3378       H  0.84061292  0.72215490  0.06944766     0.30200
H3379       H  0.92246342  0.80300508  0.09149979     0.38100
H3380       H  0.93758250  0.77680328  0.08885884     0.33500
C3381       C  0.90177494  0.78034041  0.96417935    -0.20200
C3382       C  0.91533691  0.76833843  0.94639987     0.36000
C3383       C  0.90398781  0.76054486  0.92519758    -0.26200
C3384       C  0.87941484  0.76461374  0.92130902     0.02400
C3385       C  0.86609759  0.77723807  0.93884867     0.27300
C3386       C  0.87734476  0.78470103  0.96012931    -0.25300
N3387       N  0.94031150  0.76332933  0.95026571    -0.82700
H3388       H  0.91422271  0.75071634  0.91187513     0.13100
C3389       C  0.86773072  0.75547186  0.89896235     0.02400
N3390       N  0.84116526  0.78243265  0.93497972    -0.81300
H3391       H  0.86693339  0.79391521  0.97376141     0.17900
C3392       C  0.84736726  0.74078526  0.90069232    -0.26100
C3393       C  0.83511322  0.73284281  0.88009233     0.35900
C3394       C  0.84354114  0.73940375  0.85719256    -0.20100
C3395       C  0.86436601  0.75337939  0.85539510    -0.25400
C3396       C  0.87637595  0.76170876  0.87601513     0.27300
H3397       H  0.84090875  0.73563163  0.91824683     0.13000
N3398       N  0.81414876  0.71811131  0.88230886    -0.82700
H3399       H  0.87069629  0.75866410  0.83782787     0.17900
N3400       N  0.89690830  0.77703227  0.87375247    -0.81300
H3401       H  0.81023825  0.71491728  0.90034292     0.33500
H3402       H  0.81810083  0.70146166  0.87457169     0.38000
H3403       H  0.90093698  0.78000776  0.85570853     0.33500
H3404       H  0.89238586  0.79369670  0.88113891     0.30200
H3405       H  0.83392233  0.79167967  0.94963797     0.33500
H3406       H  0.84000328  0.79396124  0.92029733     0.30200
H3407       H  0.94158168  0.75151526  0.96471259     0.38100
H3408       H  0.94766944  0.75442879  0.93545411     0.33500
C3409       C  0.46888466  0.97688475  0.68489849    -0.20200
C3410       C  0.48348631  0.99506386  0.69491169     0.36000
C3411       C  0.50854118  0.99272743  0.69376373    -0.26200
C3412       C  0.51950035  0.97336875  0.68186554     0.02400
C3413       C  0.50498930  0.95581008  0.67094087     0.27300
C3414       C  0.47993669  0.95756260  0.67290429    -0.25300
N3415       N  0.47305162  0.01549161  0.70679763    -0.82700
H3416       H  0.51965993  0.00609403  0.70238216     0.13100
C3417       C  0.54615212  0.97153536  0.68181899     0.02400
N3418       N  0.51572501  0.93631304  0.65782735    -0.81300
H3419       H  0.46895234  0.94378627  0.66477877     0.17900
C3420       C  0.55724045  0.95045792  0.68992482    -0.26100
C3421       C  0.58228035  0.94886062  0.69236948     0.35900
C3422       C  0.59663234  0.96905764  0.68697979    -0.20100
C3423       C  0.58545168  0.98987780  0.67820110    -0.25400
C3424       C  0.56052266  0.99117026  0.67516120     0.27300
H3425       H  0.54623450  0.93538789  0.69513730     0.13000
N3426       N  0.59293434  0.92698514  0.70082989    -0.82700
H3427       H  0.59621894  0.00526137  0.67343036     0.17900
N3428       N  0.54971392  0.01234542  0.66524185    -0.81300
H3429       H  0.57997245  0.91367499  0.70297514     0.33500
H3430       H  0.59996413  0.93038473  0.71785185     0.38000
H3431       H  0.56272996  0.02517895  0.66129241     0.33500
H3432       H  0.54184115  0.00749502  0.64895000     0.30200
H3433       H  0.50257347  0.92485124  0.65104234     0.33500
H3434       H  0.52458266  0.94360291  0.64304423     0.30200
H3435       H  0.46545824  0.02630739  0.69355807     0.38100
H3436       H  0.48631326  0.02594692  0.71487806     0.33500
C3437       C  0.39253376  0.02097974  0.69411937    -0.20200
C3438       C  0.36827445  0.02286914  0.70149901     0.36000
C3439       C  0.35710818  0.04555098  0.70208041    -0.26200
C3440       C  0.36980129  0.06641210  0.69631012     0.02400
C3441       C  0.39390301  0.06461830  0.68909702     0.27300
C3442       C  0.40493544  0.04204366  0.68802603    -0.25300
N3443       N  0.35524256  0.00205666  0.70912086    -0.82700
H3444       H  0.33870798  0.04712678  0.70811792     0.13100
C3445       C  0.35854467  0.09017883  0.70052494     0.02400
N3446       N  0.40714629  0.08583077  0.68306575    -0.81300
H3447       H  0.42342665  0.04102348  0.68224795     0.17900
C3448       C  0.36901052  0.10558526  0.71738705    -0.26100
C3449       C  0.35858153  0.12777528  0.72313490     0.35900
C3450       C  0.33671645  0.13440142  0.71222923    -0.20100
C3451       C  0.32633287  0.11905956  0.69515127    -0.25400
C3452       C  0.33729723  0.09719236  0.68883133     0.27300
H3453       H  0.38529251  0.10005932  0.72638862     0.13000
N3454       N  0.36954243  0.14296110  0.74085715    -0.82700
H3455       H  0.30970182  0.12426385  0.68660089     0.17900
N3456       N  0.32705906  0.08216139  0.67058201    -0.81300
H3457       H  0.38430626  0.13440816  0.74858934     0.33500
H3458       H  0.37639902  0.15790906  0.73197423     0.38000
H3459       H  0.31142988  0.08993062  0.66376806     0.33500
H3460       H  0.33927962  0.08134332  0.65637814     0.30200
H3461       H  0.42482893  0.08152300  0.67854114     0.33500
H3462       H  0.39931077  0.09320854  0.66776303     0.30200
H3463       H  0.36316738  0.99599289  0.72495571     0.38100
H3464       H  0.33755907  0.00656196  0.71345944     0.33500
C3465       C  0.39309687  0.93192461  0.68976375    -0.20200
C3466       C  0.40494773  0.91039785  0.69608848     0.36000
C3467       C  0.39200607  0.88900478  0.69790152    -0.26200
C3468       C  0.36731543  0.88835268  0.69358388     0.02400
C3469       C  0.35543076  0.90956007  0.68649421     0.27300
C3470       C  0.36840909  0.93112093  0.68474628    -0.25300
N3471       N  0.42995532  0.91020825  0.70178994    -0.82700
H3472       H  0.40121280  0.87293434  0.70375668     0.13100
C3473       C  0.35401250  0.86595031  0.69913551     0.02400
N3474       N  0.33020130  0.90914688  0.68139877    -0.81300
H3475       H  0.35913370  0.94738679  0.67960074     0.17900
C3476       C  0.33576764  0.86685040  0.71639987    -0.26100
C3477       C  0.32454323  0.84592582  0.72438907     0.35900
C3478       C  0.33150478  0.82342316  0.71496578    -0.20100
C3479       C  0.34962579  0.82244752  0.69750966    -0.25400
C3480       C  0.36085502  0.84351766  0.68936931     0.27300
H3481       H  0.33077320  0.88386813  0.72442963     0.13000
N3482       N  0.30674997  0.84755153  0.74287378    -0.82700
H3483       H  0.35485280  0.80525200  0.69005068     0.17900
N3484       N  0.37922083  0.84225089  0.67132693    -0.81300
H3485       H  0.31451737  0.85568400  0.75786553     0.33500
H3486       H  0.29294398  0.85867603  0.73681265     0.38000
H3487       H  0.38226117  0.82446975  0.66613838     0.33500
H3488       H  0.37286286  0.85123510  0.65619868     0.30200
H3489       H  0.32413969  0.92620503  0.67656085     0.33500
H3490       H  0.32767006  0.89804222  0.66649089     0.30200
H3491       H  0.43191828  0.90405178  0.71935216     0.38100
H3492       H  0.43852324  0.89804026  0.69031920     0.33500
C3493       C  0.21982534  0.98117657  0.94187232    -0.20200
C3494       C  0.20745281  0.96205198  0.95292221     0.36000
C3495       C  0.20842766  0.95957134  0.97783421    -0.26200
C3496       C  0.22102308  0.97605212  0.99176578     0.02400
C3497       C  0.23184800  0.99611381  0.98112757     0.27300
C3498       C  0.23119698  0.99850431  0.95613702    -0.25300
N3499       N  0.19423329  0.94505988  0.93878755    -0.82700
H3500       H  0.19977959  0.94449350  0.98641902     0.13100
C3501       C  0.22348596  0.97166349  0.01749527     0.02400
N3502       N  0.24402588  0.01348561  0.99574647    -0.81300
H3503       H  0.24055194  0.01326284  0.94776432     0.17900
C3504       C  0.24495516  0.96185739  0.02601303    -0.26100
C3505       C  0.24879802  0.95921235  0.05066312     0.35900
C3506       C  0.23065452  0.96642589  0.06673320    -0.20100
C3507       C  0.20881743  0.97531210  0.05807840    -0.25400
C3508       C  0.20500410  0.97792539  0.03345418     0.27300
H3509       H  0.25895683  0.95699826  0.01340639     0.13000
N3510       N  0.27133647  0.95033710  0.05943775    -0.82700
H3511       H  0.19502700  0.98088200  0.07063030     0.17900
N3512       N  0.18273793  0.98733471  0.02456670    -0.81300
H3513       H  0.28262560  0.94567786  0.04518459     0.33500
H3514       H  0.27973943  0.96434649  0.06861694     0.38000
H3515       H  0.17092526  0.99083578  0.03871899     0.33500
H3516       H  0.18633221  0.00381198  0.01647957     0.30200
H3517       H  0.25132486  0.02701776  0.98510618     0.33500
H3518       H  0.23120952  0.02168959  0.00675619     0.30200
H3519       H  0.18016214  0.95431809  0.93060831     0.38100
H3520       H  0.18646798  0.93198608  0.94967047     0.33500
C3521       C  0.24005021  0.02363700  0.86691933    -0.20200
C3522       C  0.23115546  0.04659802  0.87305513     0.36000
C3523       C  0.23827007  0.06648463  0.85943344    -0.26200
C3524       C  0.25427555  0.06387318  0.84022521     0.02400
C3525       C  0.26360012  0.04117928  0.83441080     0.27300
C3526       C  0.25625861  0.02127519  0.84769468    -0.25300
N3527       N  0.21488372  0.04968341  0.89282464    -0.82700
H3528       H  0.23127669  0.08413477  0.86370804     0.13100
C3529       C  0.26058612  0.08513440  0.82603077     0.02400
N3530       N  0.28053806  0.03848086  0.81514382    -0.81300
H3531       H  0.26351718  0.00381586  0.84311323     0.17900
C3532       C  0.28234534  0.09680563  0.83028550    -0.26100
C3533       C  0.28802720  0.11813358  0.81822732     0.35900
C3534       C  0.27157035  0.12778340  0.80165453    -0.20100
C3535       C  0.25018075  0.11545751  0.79688776    -0.25400
C3536       C  0.24449084  0.09424569  0.80897616     0.27300
H3537       H  0.29472127  0.08939917  0.84326097     0.13000
N3538       N  0.31048828  0.12982326  0.82249601    -0.82700
H3539       H  0.23760381  0.12270974  0.78406527     0.17900
N3540       N  0.22227286  0.08210802  0.80437659    -0.81300
H3541       H  0.32049937  0.12043851  0.83522679     0.33500
H3542       H  0.32023196  0.12908884  0.80649172     0.38000
H3543       H  0.21227272  0.09132102  0.79151462     0.33500
H3544       H  0.22639930  0.06534892  0.79697870     0.30200
H3545       H  0.28600731  0.02060220  0.81350594     0.33500
H3546       H  0.27175034  0.04282650  0.79920900     0.30200
H3547       H  0.19897658  0.04086208  0.88846195     0.38100
H3548       H  0.21050283  0.06778541  0.89512399     0.33500
C3549       C  0.23548366  0.93629122  0.86802780    -0.20200
C3550       C  0.23964456  0.91467646  0.88067629     0.36000
C3551       C  0.24689365  0.89417785  0.86801902    -0.26200
C3552       C  0.24948024  0.89448221  0.84308738     0.02400
C3553       C  0.24420481  0.91559206  0.83029157     0.27300
C3554       C  0.23739333  0.93625722  0.84290436    -0.25300
N3555       N  0.23667062  0.91342124  0.90622691    -0.82700
H3556       H  0.25001569  0.87761331  0.87762031     0.13100
C3557       C  0.25595043  0.87196318  0.83062740     0.02400
N3558       N  0.24583791  0.91598524  0.80457138    -0.81300
H3559       H  0.23381177  0.95251835  0.83296739     0.17900
C3560       C  0.24048188  0.86323902  0.81297179    -0.26100
C3561       C  0.24512040  0.84155541  0.80136378     0.35900
C3562       C  0.26556686  0.82802723  0.80760298    -0.20100
C3563       C  0.28084001  0.83640882  0.82570864    -0.25400
C3564       C  0.27640626  0.85848980  0.83710967     0.27300
H3565       H  0.22437178  0.87311400  0.80845082     0.13000
N3566       N  0.22855984  0.83300069  0.78371622    -0.82700
H3567       H  0.29650753  0.82600091  0.83055757     0.17900
N3568       N  0.29259444  0.86736153  0.85506333    -0.81300
H3569       H  0.21169534  0.83150977  0.79174329     0.33500
H3570       H  0.22737920  0.84580011  0.77012616     0.38000
H3571       H  0.30657564  0.85518479  0.85787949     0.33500
H3572       H  0.30035542  0.88302981  0.84843104     0.30200
H3573       H  0.24087400  0.93277273  0.79791022     0.33500
H3574       H  0.26379619  0.91333415  0.79992280     0.30200
H3575       H  0.21828717  0.91441913  0.90965437     0.38100
H3576       H  0.24224244  0.89675632  0.91271476     0.33500
C3577       C  0.58240851  0.97685636  0.30840141    -0.20200
C3578       C  0.56797750  0.99546648  0.29900400     0.36000
C3579       C  0.54307527  0.99495237  0.30266231    -0.26200
C3580       C  0.53222332  0.97627818  0.31540147     0.02400
C3581       C  0.54658997  0.95781233  0.32497383     0.27300
C3582       C  0.57148471  0.95819968  0.32121463    -0.25300
N3583       N  0.57849638  0.01448612  0.28526025    -0.82700
H3584       H  0.53194260  0.00886995  0.29496092     0.13100
C3585       C  0.50566854  0.97552805  0.31708043     0.02400
N3586       N  0.53582817  0.93881811  0.33855706    -0.81300
H3587       H  0.58245978  0.94403291  0.32867883     0.17900
C3588       C  0.49359285  0.95567149  0.30761371    -0.26100
C3589       C  0.46847659  0.95478766  0.30714401     0.35900
C3590       C  0.45501688  0.97419695  0.31663100    -0.20100
C3591       C  0.46716074  0.99407918  0.32616646    -0.25400
C3592       C  0.49235097  0.99487075  0.32663653     0.27300
H3593       H  0.50387457  0.94106021  0.29986923     0.13000
N3594       N  0.45669590  0.93455928  0.29636459    -0.82700
H3595       H  0.45696637  0.00893103  0.33354591     0.17900
N3596       N  0.50448525  0.01516048  0.33684872    -0.81300
H3597       H  0.46918570  0.92177716  0.29058646     0.33500
H3598       H  0.44788467  0.94067052  0.28102651     0.38000
H3599       H  0.49212894  0.02787909  0.34304231     0.33500
H3600       H  0.51393495  0.00914140  0.35183719     0.30200
H3601       H  0.54883654  0.92657465  0.34422646     0.33500
H3602       H  0.52842026  0.94644803  0.35403271     0.30200
H3603       H  0.56542739  0.02680144  0.27989084     0.38100
H3604       H  0.58554304  0.00689585  0.26959723     0.33500
C3605       C  0.65858940  0.02071298  0.30059216    -0.20200
C3606       C  0.64953527  0.04219730  0.31081731     0.36000
C3607       C  0.66223489  0.06370287  0.30776130    -0.26200
C3608       C  0.68378768  0.06425435  0.29485713     0.02400
C3609       C  0.69294385  0.04289557  0.28480784     0.27300
C3610       C  0.68040276  0.02132743  0.28798943    -0.25300
N3611       N  0.62769581  0.04213099  0.32451704    -0.82700
H3612       H  0.65538962  0.08015608  0.31560482     0.13100
C3613       C  0.69646555  0.08739552  0.29172776     0.02400
N3614       N  0.71468773  0.04332228  0.27097545    -0.81300
H3615       H  0.68739112  0.00502540  0.27997766     0.17900
C3616       C  0.71983385  0.08997910  0.30057227    -0.26100
C3617       C  0.73263369  0.11141726  0.29739616     0.35900
C3618       C  0.72178318  0.13067951  0.28507015    -0.20100
C3619       C  0.69816698  0.12818329  0.27670031    -0.25400
C3620       C  0.68550380  0.10667669  0.27967970     0.27300
H3621       H  0.72808619  0.07516313  0.31000313     0.13000
N3622       N  0.75649521  0.11371853  0.30676525    -0.82700
H3623       H  0.68983295  0.14278330  0.26700519     0.17900
N3624       N  0.66178784  0.10410131  0.27000282    -0.81300
H3625       H  0.76186919  0.09787889  0.31517477     0.33500
H3626       H  0.75608736  0.12701235  0.32001972     0.38000
H3627       H  0.65630815  0.11992126  0.26162077     0.33500
H3628       H  0.66253848  0.09090687  0.25666338     0.30200
H3629       H  0.71902859  0.02612908  0.26481136     0.33500
H3630       H  0.71150005  0.05377214  0.25578713     0.30200
H3631       H  0.63070430  0.03182418  0.33983565     0.38100
H3632       H  0.62343289  0.05941521  0.33048243     0.33500
C3633       C  0.65836832  0.93209550  0.30160274    -0.20200
C3634       C  0.68072119  0.92910223  0.31295966     0.36000
C3635       C  0.69254496  0.90688731  0.31176576    -0.26200
C3636       C  0.68268002  0.88754448  0.29908076     0.02400
C3637       C  0.66027311  0.89038921  0.28773842     0.27300
C3638       C  0.64821063  0.91255208  0.28936719    -0.25300
N3639       N  0.69132711  0.94844688  0.32608071    -0.82700
H3640       H  0.70971044  0.90479382  0.32056799     0.13100
C3641       C  0.69678133  0.86500934  0.29642079     0.02400
N3642       N  0.65013803  0.87094408  0.27419716    -0.81300
H3643       H  0.63109966  0.91477804  0.28049711     0.17900
C3644       C  0.68791144  0.84341398  0.30564719    -0.26100
C3645       C  0.70057010  0.82169483  0.30255907     0.35900
C3646       C  0.72222373  0.82145887  0.28927026    -0.20100
C3647       C  0.73136567  0.84333911  0.28080187    -0.25400
C3648       C  0.71893958  0.86503648  0.28429467     0.27300
H3649       H  0.67110964  0.84357016  0.31539983     0.13000
N3650       N  0.69166176  0.80001172  0.31312541    -0.82700
H3651       H  0.74795856  0.84347714  0.27071551     0.17900
N3652       N  0.72850001  0.88709866  0.27514515    -0.81300
H3653       H  0.67569185  0.80330525  0.32239932     0.33500
H3654       H  0.70416990  0.79443377  0.32589178     0.38000
H3655       H  0.74504553  0.88415230  0.26682868     0.33500
H3656       H  0.71683290  0.89330050  0.26189135     0.30200
H3657       H  0.63364328  0.87597429  0.26689382     0.33500
H3658       H  0.66156816  0.86742729  0.25973487     0.30200
H3659       H  0.70816041  0.95189502  0.31863514     0.38100
H3660       H  0.69384318  0.94285775  0.34376100     0.33500
C3661       C  0.84342529  0.97632928  0.94520919    -0.20200
C3662       C  0.83620317  0.99468675  0.96115742     0.36000
C3663       C  0.84450091  0.99426892  0.98483059    -0.26200
C3664       C  0.86019460  0.97624259  0.99269631     0.02400
C3665       C  0.86853383  0.95880985  0.97636713     0.27300
C3666       C  0.85968134  0.95874345  0.95289611    -0.25300
N3667       N  0.81990613  0.01317108  0.95357596    -0.82700
H3668       H  0.83774253  0.00739784  0.99752618     0.13100
C3669       C  0.86416258  0.97369469  0.01873887     0.02400
N3670       N  0.88569013  0.94110363  0.98384324    -0.81300
H3671       H  0.86566703  0.94500503  0.94046391     0.17900
C3672       C  0.85689058  0.95234461  0.02961079    -0.26100
C3673       C  0.85293617  0.95119114  0.05434001     0.35900
C3674       C  0.85669520  0.97196138  0.06855656    -0.20100
C3675       C  0.86680238  0.99238979  0.05790883    -0.25400
C3676       C  0.87056721  0.99345820  0.03307893     0.27300
H3677       H  0.85197547  0.93716201  0.01851485     0.13000
N3678       N  0.84329973  0.92960217  0.06447289    -0.82700
H3679       H  0.87061536  0.00803423  0.06879327     0.17900
N3680       N  0.87964383  0.01489726  0.02216993    -0.81300
H3681       H  0.84322421  0.91572211  0.05182830     0.33500
H3682       H  0.82535277  0.93296754  0.06873204     0.38000
H3683       H  0.88320131  0.02792714  0.03518836     0.33500
H3684       H  0.89603302  0.01058213  0.01412903     0.30200
H3685       H  0.88995957  0.92955748  0.96965538     0.33500
H3686       H  0.90145620  0.95012646  0.98832488     0.30200
H3687       H  0.80344292  0.00508258  0.94990323     0.38100
H3688       H  0.81686345  0.02551683  0.96740383     0.33500
C3689       C  0.82483606  0.02044477  0.13523391    -0.20200
C3690       C  0.81170748  0.03760208  0.12209667     0.36000
C3691       C  0.80424448  0.05889060  0.13351459    -0.26200
C3692       C  0.81019219  0.06360698  0.15753845     0.02400
C3693       C  0.82443075  0.04691874  0.17016111     0.27300
C3694       C  0.83112948  0.02532020  0.15902844    -0.25300
N3695       N  0.80543560  0.03308731  0.09751336    -0.82700
H3696       H  0.79326393  0.07160375  0.12380744     0.13100
C3697       C  0.80088709  0.08565590  0.16954804     0.02400
N3698       N  0.83212781  0.05203100  0.19421125    -0.81300
H3699       H  0.84157996  0.01226969  0.16889123     0.17900
C3700       C  0.78872535  0.08356811  0.19152655    -0.26100
C3701       C  0.78084028  0.10393824  0.20419848     0.35900
C3702       C  0.78464890  0.12686963  0.19437536    -0.20100
C3703       C  0.79564559  0.12892909  0.17184723    -0.25400
C3704       C  0.80420176  0.10862045  0.15951525     0.27300
H3705       H  0.78565055  0.06593490  0.19897790     0.13000
N3706       N  0.76916946  0.10146168  0.22704588    -0.82700
H3707       H  0.79882702  0.14658821  0.16447907     0.17900
N3708       N  0.81700182  0.11132751  0.13731762    -0.81300
H3709       H  0.76789704  0.08339715  0.23179871     0.33500
H3710       H  0.75163387  0.10783097  0.22523870     0.38000
H3711       H  0.81782479  0.12937595  0.13240344     0.33500
H3712       H  0.83464538  0.10571109  0.14019363     0.30200
H3713       H  0.84243749  0.03790676  0.20094224     0.33500
H3714       H  0.84335450  0.06697776  0.19349976     0.30200
H3715       H  0.79383522  0.01841711  0.09718118     0.38100
H3716       H  0.79593696  0.04760155  0.09042788     0.33500
C3717       C  0.82553359  0.93209576  0.14048981    -0.20200
C3718       C  0.81424170  0.93185087  0.16327983     0.36000
C3719       C  0.80603983  0.90999973  0.17273302    -0.26200
C3720       C  0.80907561  0.88838314  0.16021323     0.02400
C3721       C  0.82081172  0.88836235  0.13792083     0.27300
C3722       C  0.82888808  0.91012379  0.12830496    -0.25300
N3723       N  0.81115530  0.95358650  0.17687547    -0.82700
H3724       H  0.79751816  0.90970763  0.19019010     0.13100
C3725       C  0.80206329  0.86563639  0.17189194     0.02400
N3726       N  0.82453467  0.86621072  0.12517921    -0.81300
H3727       H  0.83772543  0.90977481  0.11103716     0.17900
C3728       C  0.78107990  0.85362713  0.16500574    -0.26100
C3729       C  0.77387662  0.83235612  0.17662608     0.35900
C3730       C  0.78807504  0.82302553  0.19540750    -0.20100
C3731       C  0.80926611  0.83507393  0.20181193    -0.25400
C3732       C  0.81643352  0.85610633  0.19018893     0.27300
H3733       H  0.77016675  0.86108089  0.15081066     0.13000
N3734       N  0.75207338  0.82058104  0.16976315    -0.82700
H3735       H  0.82055014  0.82786069  0.21584412     0.17900
N3736       N  0.83829918  0.86792927  0.19688337    -0.81300
H3737       H  0.74387582  0.82966910  0.15560645     0.33500
H3738       H  0.74028153  0.82164350  0.18430754     0.38000
H3739       H  0.84680408  0.85873038  0.21078128     0.33500
H3740       H  0.84988543  0.86716031  0.18215628     0.30200
H3741       H  0.83326626  0.86928420  0.10889129     0.33500
H3742       H  0.83606184  0.85559273  0.13542045     0.30200
H3743       H  0.82818563  0.95947783  0.18192451     0.38100
H3744       H  0.80179231  0.95030465  0.19276225     0.33500
C3745       C  0.71620210  0.40561762  0.00363768    -0.20200
C3746       C  0.72837966  0.41776834  0.02222503     0.36000
C3747       C  0.72796157  0.44293677  0.02294603    -0.26200
C3748       C  0.71568266  0.45618233  0.00551637     0.02400
C3749       C  0.70357576  0.44404869  0.98691849     0.27300
C3750       C  0.70423022  0.41889579  0.98600519    -0.25300
N3751       N  0.74156915  0.40457674  0.03996127    -0.82700
H3752       H  0.73760286  0.45232827  0.03693987     0.13100
C3753       C  0.71643086  0.48277138  0.00645326     0.02400
N3754       N  0.69041395  0.45733303  0.96924057    -0.81300
H3755       H  0.69486520  0.40958081  0.97177153     0.17900
C3756       C  0.72575711  0.49523815  0.98684753    -0.26100
C3757       C  0.72714140  0.52035206  0.98689496     0.35900
C3758       C  0.71873265  0.53348863  0.00708356    -0.20100
C3759       C  0.70985960  0.52082602  0.02695238    -0.25400
C3760       C  0.70843953  0.49563630  0.02675451     0.27300
H3761       H  0.73231561  0.48522327  0.97149129     0.13000
N3762       N  0.73740899  0.53238791  0.96659844    -0.82700
H3763       H  0.70341153  0.53061039  0.04248415     0.17900
N3764       N  0.69851234  0.48307022  0.04688439    -0.81300
H3765       H  0.74203686  0.52014700  0.95311968     0.33500
H3766       H  0.75337265  0.54032825  0.97227259     0.38000
H3767       H  0.69345532  0.49510985  0.06038478     0.33500
H3768       H  0.68284999  0.47462403  0.04109350     0.30200
H3769       H  0.68258513  0.44573784  0.95676882     0.33500
H3770       H  0.67635428  0.46612353  0.97805669     0.30200
H3771       H  0.75568215  0.39581268  0.03120099     0.38100
H3772       H  0.74933711  0.41621669  0.05242904     0.33500
C3773       C  0.73426072  0.27317084  0.15789979    -0.20200
C3774       C  0.73014381  0.29820439  0.15594238     0.36000
C3775       C  0.72427112  0.30811367  0.13349758    -0.26200
C3776       C  0.72141688  0.29363754  0.11308553     0.02400
C3777       C  0.72361247  0.26858026  0.11535014     0.27300
C3778       C  0.73028836  0.25868777  0.13749577    -0.25300
N3779       N  0.73225800  0.31363838  0.17650561    -0.82700
H3780       H  0.72244236  0.32736873  0.13180365     0.13100
C3781       C  0.71799519  0.30496950  0.08915205     0.02400
N3782       N  0.71928385  0.25328471  0.09501583    -0.81300
H3783       H  0.73264573  0.23945359  0.13861595     0.17900
C3784       C  0.73392827  0.29899613  0.07054496    -0.26100
C3785       C  0.73225078  0.30977866  0.04791482     0.35900
C3786       C  0.71479557  0.32767375  0.04402419    -0.20100
C3787       C  0.69879420  0.33370451  0.06254787    -0.25400
C3788       C  0.69987226  0.32216094  0.08492268     0.27300
H3789       H  0.74805741  0.28607155  0.07383182     0.13000
N3790       N  0.74904326  0.30350409  0.02933942    -0.82700
H3791       H  0.68535902  0.34741410  0.05947993     0.17900
N3792       N  0.68265672  0.32776380  0.10330067    -0.81300
H3793       H  0.76185975  0.29144127  0.03576230     0.33500
H3794       H  0.73960400  0.29429773  0.01604208     0.38000
H3795       H  0.67053755  0.34074383  0.09731043     0.33500
H3796       H  0.67271222  0.31225403  0.10653124     0.30200
H3797       H  0.72170725  0.23527973  0.09955973     0.33500
H3798       H  0.70128434  0.25528058  0.09024713     0.30200
H3799       H  0.71829000  0.30933650  0.18822197     0.38100
H3800       H  0.72962437  0.33155444  0.17172871     0.33500
C3801       C  0.74527852  0.26854236  0.84761547    -0.20200
C3802       C  0.75099463  0.25868336  0.87030560     0.36000
C3803       C  0.74347034  0.27060381  0.89124950    -0.26200
C3804       C  0.73096023  0.29236974  0.89009483     0.02400
C3805       C  0.72500131  0.30208568  0.86762477     0.27300
C3806       C  0.73213241  0.29005948  0.84664504    -0.25300
N3807       N  0.76510313  0.23714711  0.87213247    -0.82700
H3808       H  0.74825940  0.26342929  0.90862263     0.13100
C3809       C  0.72607972  0.30579891  0.91253536     0.02400
N3810       N  0.71192082  0.32427237  0.86625921    -0.81300
H3811       H  0.72743187  0.29762540  0.82942397     0.17900
C3812       C  0.73717721  0.32803294  0.91596708    -0.26100
C3813       C  0.73438629  0.34086562  0.93748062     0.35900
C3814       C  0.72007249  0.33119932  0.95600269    -0.20100
C3815       C  0.70879331  0.30898097  0.95240860    -0.25400
C3816       C  0.71152330  0.29625310  0.93077483     0.27300
H3817       H  0.74859317  0.33510050  0.90196104     0.13000
N3818       N  0.74663680  0.36326978  0.94077307    -0.82700
H3819       H  0.69768252  0.30159659  0.96648556     0.17900
N3820       N  0.69961128  0.27371792  0.92721150    -0.81300
H3821       H  0.75613788  0.36790182  0.92531289     0.33500
H3822       H  0.75934941  0.36083353  0.95429091     0.38000
H3823       H  0.68959571  0.26918575  0.94237218     0.33500
H3824       H  0.68739941  0.27592892  0.91319985     0.30200
H3825       H  0.70912719  0.32912658  0.84839987     0.33500
H3826       H  0.69500435  0.32139977  0.87376114     0.30200
H3827       H  0.78221711  0.24096847  0.86555285     0.38100
H3828       H  0.76730517  0.23220844  0.89005365     0.33500
C3829       C  0.09064084  0.15787135  0.99417003    -0.20200
C3830       C  0.08077135  0.14132200  0.01051328     0.36000
C3831       C  0.05574337  0.13959878  0.01266610    -0.26200
C3832       C  0.04074101  0.15374300  0.99841256     0.02400
C3833       C  0.05057305  0.16905617  0.98102015     0.27300
C3834       C  0.07548603  0.17096390  0.97905609    -0.25300
N3835       N  0.09618587  0.12652540  0.02486243    -0.82700
H3836       H  0.04790805  0.12762433  0.02574026     0.13100
C3837       C  0.01473343  0.15378619  0.00258016     0.02400
N3838       N  0.03515396  0.18339201  0.96618851    -0.81300
H3839       H  0.08306498  0.18365074  0.96651638     0.17900
C3840       C  0.00506657  0.17102952  0.01815641    -0.26100
C3841       C  0.98023088  0.17465116  0.01955170     0.35900
C3842       C  0.96498239  0.16054242  0.00509641    -0.20100
C3843       C  0.97470098  0.14256967  0.99036217    -0.25400
C3844       C  0.99953274  0.13896433  0.98903971     0.27300
H3845       H  0.01702301  0.18240046  0.02838828     0.13000
N3846       N  0.97058637  0.19326969  0.03467503    -0.82700
H3847       H  0.96287500  0.13160263  0.97956493     0.17900
N3848       N  0.00940582  0.12055468  0.97384489    -0.81300
H3849       H  0.98425313  0.20178488  0.04422431     0.33500
H3850       H  0.96295236  0.20625936  0.02356649     0.38000
H3851       H  0.99571497  0.11098221  0.96540392     0.33500
H3852       H  0.01919274  0.12886136  0.96025302     0.30200
H3853       H  0.04525985  0.19418876  0.95473990     0.33500
H3854       H  0.02542344  0.17177188  0.95519938     0.30200
H3855       H  0.10580830  0.11538526  0.01317977     0.38100
H3856       H  0.08605558  0.11525065  0.03582261     0.33500
C3857       C  0.89041577  0.18172739  0.04606351    -0.20200
C3858       C  0.86553869  0.17841298  0.04917253     0.36000
C3859       C  0.85468399  0.18583559  0.07070775    -0.26200
C3860       C  0.86818243  0.19616399  0.08925781     0.02400
C3861       C  0.89309102  0.19897659  0.08636072     0.27300
C3862       C  0.90390205  0.19173069  0.06483809    -0.25300
N3863       N  0.85149691  0.16707524  0.03080521    -0.82700
H3864       H  0.83563602  0.18314921  0.07326706     0.13100
C3865       C  0.85599184  0.20309356  0.11188772     0.02400
N3866       N  0.90728016  0.20934878  0.10519250    -0.81300
H3867       H  0.92299171  0.19435625  0.06259176     0.17900
C3868       C  0.86372099  0.19300442  0.13354611    -0.26100
C3869       C  0.85157097  0.19778595  0.15507355     0.35900
C3870       C  0.83107254  0.21264205  0.15478014    -0.20100
C3871       C  0.82351763  0.22303639  0.13326308    -0.25400
C3872       C  0.83611397  0.21880007  0.11183494     0.27300
H3873       H  0.87892413  0.18088125  0.13354129     0.13000
N3874       N  0.85957632  0.18716466  0.17712469    -0.82700
H3875       H  0.80796221  0.23470809  0.13328368     0.17900
N3876       N  0.82892602  0.23041721  0.09003748    -0.81300
H3877       H  0.87505062  0.17691840  0.17430188     0.33500
H3878       H  0.84629798  0.17531805  0.18288495     0.38000
H3879       H  0.81404164  0.24144490  0.09306839     0.33500
H3880       H  0.84292351  0.24165887  0.08478331     0.30200
H3881       H  0.92536162  0.20985460  0.10029819     0.33500
H3882       H  0.90172466  0.22712941  0.10740416     0.30200
H3883       H  0.85759483  0.14941419  0.02906203     0.38100
H3884       H  0.83351289  0.16608725  0.03596639     0.33500
C3885       C  0.84004675  0.20415800  0.84453025    -0.20200
C3886       C  0.86107066  0.21620933  0.85174414     0.36000
C3887       C  0.87210297  0.20976100  0.87347456    -0.26200
C3888       C  0.86273538  0.19136204  0.88784432     0.02400
C3889       C  0.84235217  0.17872849  0.88006623     0.27300
C3890       C  0.83113966  0.18542263  0.85874285    -0.25300
N3891       N  0.87086608  0.23514909  0.83737484    -0.82700
H3892       H  0.88772450  0.21951212  0.87953822     0.13100
C3893       C  0.87365107  0.18606369  0.91149271     0.02400
N3894       N  0.83316420  0.15903092  0.89383093    -0.81300
H3895       H  0.81539457  0.17562780  0.85305549     0.17900
C3896       C  0.85903161  0.18630953  0.93195303    -0.26100
C3897       C  0.86831410  0.18121506  0.95467361     0.35900
C3898       C  0.89301196  0.17624793  0.95735507    -0.20100
C3899       C  0.90761443  0.17589864  0.93669011    -0.25400
C3900       C  0.89819387  0.18064974  0.91384207     0.27300
H3901       H  0.84015714  0.19059949  0.93030894     0.13000
N3902       N  0.85242861  0.18112817  0.97484186    -0.82700
H3903       H  0.92657500  0.17209210  0.93825943     0.17900
N3904       N  0.91342575  0.17993279  0.89304409    -0.81300
H3905       H  0.83899587  0.16851175  0.97159895     0.33500
H3906       H  0.84436835  0.19802474  0.97614154     0.38000
H3907       H  0.93108981  0.17599439  0.89786463     0.33500
H3908       H  0.90760523  0.16583695  0.88214014     0.30200
H3909       H  0.81788856  0.15182396  0.88576380     0.33500
H3910       H  0.84616243  0.14550262  0.89369328     0.30200
H3911       H  0.85851923  0.24927872  0.83742752     0.38100
H3912       H  0.88659383  0.24177805  0.84504994     0.33500
C3913       C  0.33720254  0.53874066  0.99922093    -0.20200
C3914       C  0.32036766  0.52344128  0.98834889     0.36000
C3915       C  0.32405665  0.49860400  0.98922121    -0.26200
C3916       C  0.34407230  0.48899131  0.00088342     0.02400
C3917       C  0.36101546  0.50422332  0.01162113     0.27300
C3918       C  0.35732960  0.52909095  0.01077814    -0.25300
N3919       N  0.29926348  0.53313825  0.97722241    -0.82700
H3920       H  0.31106943  0.48661330  0.98121019     0.13100
C3921       C  0.34632515  0.46279279  0.00226706     0.02400
N3922       N  0.38185450  0.49439530  0.02312438    -0.81300
H3923       H  0.37011625  0.54101648  0.01920428     0.17900
C3924       C  0.35775100  0.45038535  0.98362480    -0.26100
C3925       C  0.35763242  0.42521726  0.98286156     0.35900
C3926       C  0.34562208  0.41243362  0.00108648    -0.20100
C3927       C  0.33497019  0.42506842  0.02018180    -0.25400
C3928       C  0.33513791  0.45015567  0.02090755     0.27300
H3929       H  0.36629643  0.46041425  0.96939897     0.13000
N3930       N  0.36951286  0.41268361  0.96366545    -0.82700
H3931       H  0.32566010  0.41538775  0.03416011     0.17900
N3932       N  0.32314294  0.46289802  0.03992089    -0.81300
H3933       H  0.37730280  0.42478896  0.95172550     0.33500
H3934       H  0.38355427  0.40280506  0.97115664     0.38000
H3935       H  0.31526107  0.45090472  0.05191162     0.33500
H3936       H  0.33610607  0.47228268  0.04960873     0.30200
H3937       H  0.39271799  0.50812601  0.02976433     0.33500
H3938       H  0.37612087  0.48457310  0.03795758     0.30200
H3939       H  0.28904112  0.54145617  0.99060927     0.38100
H3940       H  0.28868952  0.51939843  0.97014789     0.33500
C3941       C  0.31279700  0.66787432  0.16035021    -0.20200
C3942       C  0.32652237  0.67911357  0.14233966     0.36000
C3943       C  0.33017494  0.66730887  0.12037202    -0.26200
C3944       C  0.32079333  0.64440989  0.11626778     0.02400
C3945       C  0.30798565  0.63268950  0.13451491     0.27300
C3946       C  0.30417747  0.64451633  0.15645559    -0.25300
N3947       N  0.33674295  0.70238967  0.14644304    -0.82700
H3948       H  0.34024590  0.67602270  0.10627406     0.13100
C3949       C  0.32363867  0.63339667  0.09233676     0.02400
N3950       N  0.29843369  0.60911690  0.13044012    -0.81300
H3951       H  0.29363549  0.63581936  0.17021458     0.17900
C3952       C  0.33859111  0.61340772  0.08948862    -0.26100
C3953       C  0.34160181  0.60253081  0.06693307     0.35900
C3954       C  0.32915127  0.61186241  0.04688506    -0.20100
C3955       C  0.31442086  0.63210295  0.04988840    -0.25400
C3956       C  0.31135360  0.64280289  0.07246379     0.27300
H3957       H  0.34800517  0.60638544  0.10492637     0.13000
N3958       N  0.35732844  0.58221013  0.06436977    -0.82700
H3959       H  0.30460377  0.63915749  0.03473029     0.17900
N3960       N  0.29545074  0.66291708  0.07544836    -0.81300
H3961       H  0.36475636  0.57748545  0.08088628     0.33500
H3962       H  0.37157795  0.58737586  0.05338014     0.38000
H3963       H  0.28775039  0.66766240  0.05906564     0.33500
H3964       H  0.28139631  0.65748169  0.08656268     0.30200
H3965       H  0.28949633  0.60298489  0.14570285     0.33500
H3966       H  0.28558724  0.61044334  0.11689227     0.30200
H3967       H  0.34630097  0.70808283  0.13138702     0.38100
H3968       H  0.34917377  0.70072596  0.16034196     0.33500
C3969       C  0.32099713  0.61534955  0.95887467    -0.20200
C3970       C  0.30999945  0.60533567  0.93835797     0.36000
C3971       C  0.30930710  0.61858027  0.91698306    -0.26200
C3972       C  0.31882335  0.64179519  0.91583874     0.02400
C3973       C  0.32882879  0.65220026  0.93658740     0.27300
C3974       C  0.32976492  0.63889475  0.95787829    -0.25300
N3975       N  0.29915053  0.58202212  0.93941181    -0.82700
H3976       H  0.30092699  0.61095256  0.90121103     0.13100
C3977       C  0.31706289  0.65542751  0.89310533     0.02400
N3978       N  0.33829206  0.67612460  0.93584477    -0.81300
H3979       H  0.33804948  0.64673489  0.97358865     0.17900
C3980       C  0.30454105  0.67721598  0.89302696    -0.26100
C3981       C  0.30098074  0.69005222  0.87175827     0.35900
C3982       C  0.31029635  0.68090194  0.84993105    -0.20100
C3983       C  0.32334287  0.65929354  0.85013993    -0.25400
C3984       C  0.32693538  0.64653352  0.87153792     0.27300
H3985       H  0.29678960  0.68384803  0.90959477     0.13000
N3986       N  0.28711324  0.71182940  0.87221569    -0.82700
H3987       H  0.33067289  0.65227960  0.83353539     0.17900
N3988       N  0.34047593  0.62457033  0.87148267    -0.81300
H3989       H  0.28206958  0.71626571  0.88973248     0.33500
H3990       H  0.27125363  0.70862564  0.86280264     0.38000
H3991       H  0.34642909  0.62044350  0.85417405     0.33500
H3992       H  0.35578266  0.62736031  0.88188514     0.30200
H3993       H  0.34481646  0.68122014  0.95265274     0.33500
H3994       H  0.35292898  0.67599946  0.92413687     0.30200
H3995       H  0.29181090  0.57735339  0.92281821     0.38100
H3996       H  0.28484796  0.58308306  0.95149995     0.33500
C3997       C  0.09335691  0.80104898  0.00676638    -0.20200
C3998       C  0.07712223  0.80062159  0.98735566     0.36000
C3999       C  0.05320992  0.80730612  0.99096874    -0.26200
C4000       C  0.04486089  0.81453539  0.01355791     0.02400
C4001       C  0.06122203  0.81664642  0.03265889     0.27300
C4002       C  0.08527488  0.80986610  0.02908680    -0.25300
N4003       N  0.08433211  0.79233697  0.96413211    -0.82700
H4004       H  0.04072722  0.80539101  0.97623396     0.13100
C4005       C  0.01854938  0.81572319  0.01731859     0.02400
N4006       N  0.05319633  0.82505763  0.05569699    -0.81300
H4007       H  0.09757118  0.81088229  0.04404656     0.17900
C4008       C  0.00823929  0.79986263  0.03372475    -0.26100
C4009       C  0.98365992  0.79506658  0.03329660     0.35900
C4010       C  0.96889172  0.80625330  0.01607207    -0.20100
C4011       C  0.97889962  0.82357119  0.00086324    -0.25400
C4012       C  0.00358794  0.82873307  0.00165292     0.27300
H4013       H  0.01955978  0.78970188  0.04577275     0.13000
N4014       N  0.97416062  0.77748506  0.04932075    -0.82700
H4015       H  0.96755020  0.83269405  0.98805302     0.17900
N4016       N  0.01375389  0.84651154  0.98612536    -0.81300
H4017       H  0.98320197  0.76131000  0.04632021     0.33500
H4018       H  0.97778941  0.78306223  0.06684419     0.38000
H4019       H  0.00040408  0.85451092  0.97572425     0.33500
H4020       H  0.02085973  0.86003092  0.99699921     0.30200
H4021       H  0.06742306  0.82545823  0.06785764     0.33500
H4022       H  0.04743377  0.84277438  0.05361322     0.30200
H4023       H  0.08099108  0.80601500  0.95181502     0.38100
H4024       H  0.07367387  0.77765002  0.95952253     0.33500
C4025       C  0.16426782  0.76743268  0.04643134    -0.20200
C4026       C  0.16163088  0.78110617  0.06761246     0.36000
C4027       C  0.17234332  0.77331063  0.08890014    -0.26200
C4028       C  0.18584316  0.75210441  0.08954326     0.02400
C4029       C  0.18860267  0.73833456  0.06846742     0.27300
C4030       C  0.17783219  0.74617847  0.04706997    -0.25300
N4031       N  0.14857549  0.80325517  0.06748841    -0.82700
H4032       H  0.17034965  0.78404619  0.10501466     0.13100
C4033       C  0.19824246  0.74550462  0.11207978     0.02400
N4034       N  0.20244929  0.71657811  0.06887166    -0.81300
H4035       H  0.17977087  0.73549688  0.03092578     0.17900
C4036       C  0.19189010  0.72453222  0.12434022    -0.26100
C4037       C  0.20309283  0.71827900  0.14609701     0.35900
C4038       C  0.22157972  0.73303038  0.15526000    -0.20100
C4039       C  0.22785773  0.75390276  0.14273118    -0.25400
C4040       C  0.21625616  0.76040445  0.12146559     0.27300
H4041       H  0.17785659  0.71326814  0.11709728     0.13000
N4042       N  0.19610596  0.69683493  0.15845439    -0.82700
H4043       H  0.24168429  0.76551997  0.14981193     0.17900
N4044       N  0.22262946  0.78218185  0.10935073    -0.81300
H4045       H  0.18362764  0.68721862  0.14833164     0.33500
H4046       H  0.18713360  0.70205369  0.17408332     0.38000
H4047       H  0.23598836  0.79129877  0.11875759     0.33500
H4048       H  0.22995744  0.77747291  0.09273279     0.30200
H4049       H  0.20253013  0.70843223  0.05196805     0.33500
H4050       H  0.22018517  0.72119667  0.07264634     0.30200
H4051       H  0.13464955  0.80198070  0.07996366     0.38100
H4052       H  0.16009638  0.81689466  0.07311261     0.33500
C4053       C  0.21745809  0.74524658  0.84610808    -0.20200
C4054       C  0.21905346  0.76795061  0.85718414     0.36000
C4055       C  0.20620590  0.77239610  0.87832108    -0.26200
C4056       C  0.19191700  0.75461089  0.88873643     0.02400
C4057       C  0.18908125  0.73239357  0.87681660     0.27300
C4058       C  0.20181719  0.72799633  0.85545058    -0.25300
N4059       N  0.23368182  0.78642543  0.84685089    -0.82700
H4060       H  0.20765903  0.78972743  0.88701902     0.13100
C4061       C  0.18119762  0.75930617  0.91270260     0.02400
N4062       N  0.17383265  0.71422296  0.88673317    -0.81300
H4063       H  0.20026882  0.71075894  0.84657991     0.17900
C4064       C  0.15641396  0.75711271  0.91604017    -0.26100
C4065       C  0.14584978  0.76157943  0.93851303     0.35900
C4066       C  0.16033072  0.76897472  0.95795204    -0.20100
C4067       C  0.18517134  0.77090459  0.95462597    -0.25400
C4068       C  0.19575759  0.76613278  0.93224035     0.27300
H4069       H  0.14527160  0.75189459  0.90103504     0.13000
N4070       N  0.12055549  0.75814184  0.94174893    -0.82700
H4071       H  0.19634778  0.77645794  0.96948506     0.17900
N4072       N  0.22126394  0.76819841  0.92922716    -0.81300
H4073       H  0.11829509  0.74406893  0.95385780     0.33500
H4074       H  0.11251206  0.75274041  0.92571769     0.38000
H4075       H  0.22939357  0.77343300  0.94526654     0.33500
H4076       H  0.22796944  0.75117527  0.92502382     0.30200
H4077       H  0.17353217  0.69909480  0.87562187     0.33500
H4078       H  0.18129990  0.70880677  0.90300944     0.30200
H4079       H  0.23319633  0.80195711  0.85738334     0.38100
H4080       H  0.22621019  0.79094406  0.83029293     0.33500
loop_ 
_geom_bond_atom_site_label_1 
_geom_bond_atom_site_label_2 
_geom_bond_distance 
_geom_bond_site_symmetry_2 
_ccdc_geom_bond_type 
C1            N2   1.359       .  A
C1            N6   1.361   1_556  A
C1         C4066   1.484       .  S
N2            C3   1.359   1_556  A
C3            N4   1.356       .  A
C3         C3997   1.491       .  S
N4            C5   1.357       .  A
C5            N6   1.361       .  A
C5         C4025   1.482       .  S
C7            N8   1.361       .  A
C7           N12   1.354       .  A
C7         C3954   1.482       .  S
N8            C9   1.361   1_554  A
C9           N10   1.359       .  A
C9         C3969   1.483       .  S
N10          C11   1.357   1_556  A
C11          N12   1.352       .  A
C11        C3913   1.466   1_554  S
C13          N14   1.355       .  A
C13          N18   1.360       .  A
C13        C3857   1.481       .  S
N14          C15   1.352       .  A
C15          N16   1.356   1_554  A
C15        C3842   1.470       .  S
N16          C17   1.359       .  A
C17          N18   1.362   1_556  A
C17        C3898   1.493       .  S
C19          N20   1.359       .  A
C19          N24   1.359       .  A
C19        C3814   1.483       .  S
N20          C21   1.358   1_556  A
C21          N22   1.358       .  A
C21        C3745   1.478       .  S
N22          C23   1.357       .  A
C23          N24   1.359   1_554  A
C23        C3786   1.478       .  S
C25          N26   1.356       .  A
C25          N30   1.359       .  A
C25        C3717   1.495       .  S
N26          C27   1.356       .  A
C27          N28   1.359       .  A
C27        C3674   1.483       .  S
N28          C29   1.357       .  A
C29          N30   1.359       .  A
C29        C3689   1.476   1_565  S
C31          N32   1.358       .  A
C31          N36   1.361       .  A
C31        C3605   1.488   1_565  S
N32          C33   1.357       .  A
C33          N34   1.359       .  A
C33        C3577   1.484       .  S
N34          C35   1.359       .  A
C35          N36   1.361       .  A
C35        C3633   1.484       .  S
C37          N38   1.356   1_545  A
C37          N42   1.360       .  A
C37        C3521   1.479       .  S
N38          C39   1.353       .  A
C39          N40   1.350       .  A
C39        C3549   1.483       .  S
N40          C41   1.354       .  A
C41          N42   1.361   1_565  A
C41        C3493   1.474       .  S
C43          N44   1.362       .  A
C43          N48   1.358       .  A
C43        C3465   1.492       .  S
N44          C45   1.362       .  A
C45          N46   1.360       .  A
C45        C3437   1.493   1_565  S
N46          C47   1.355       .  A
C47          N48   1.357       .  A
C47        C3409   1.490       .  S
C49          N50   1.355       .  A
C49          N54   1.358       .  A
C49        C3353   1.494       .  S
N50          C51   1.357       .  A
C51          N52   1.363   1_554  A
C51        C4010   1.484       .  S
N52          C53   1.363       .  A
C53          N54   1.359   1_556  A
C53        C3381   1.484       .  S
C55          N56   1.363       .  A
C55          N60   1.358       .  A
C55        C3297   1.481       .  S
N56          C57   1.364       .  A
C57          N58   1.358   1_554  A
C57        C3758   1.492       .  S
N58          C59   1.355       .  A
C59          N60   1.357   1_556  A
C59        C3325   1.489       .  S
C61          N62   1.358       .  A
C61          N66   1.355       .  A
C61        C3269   1.475       .  S
N62          C63   1.360       .  A
C63          N64   1.356   1_556  A
C63        C3829   1.472       .  S
N64          C65   1.355       .  A
C65          N66   1.355   1_554  A
C65        C3241   1.468       .  S
C67          N68   1.359       .  A
C67          N72   1.358       .  A
C67        C3213   1.478       .  S
N68          C69   1.358   1_556  A
C69          N70   1.357       .  A
C69        C3926   1.478       .  S
N70          C71   1.356       .  A
C71          N72   1.358   1_554  A
C71        C3185   1.480       .  S
C73          N74   1.355       .  A
C73          N78   1.354       .  A
C73        C3157   1.469       .  S
N74          C75   1.357       .  A
C75          N76   1.356       .  A
C75        C3661   1.472       .  S
N76          C77   1.356       .  A
C77          N78   1.355       .  A
C77        C3129   1.477   1_565  S
C79          N80   1.357       .  A
C79          N84   1.362       .  A
C79        C3073   1.484   1_565  S
N80          C81   1.357       .  A
C81          N82   1.357       .  A
C81        C3422   1.491       .  S
N82          C83   1.360       .  A
C83          N84   1.362       .  A
C83        C3101   1.493       .  S
C85          N86   1.360       .  A
C85          N90   1.352       .  A
C85        C3017   1.477   1_565  S
N86          C87   1.360       .  A
C87          N88   1.357       .  A
C87        C3058   1.470       .  S
N88          C89   1.354       .  A
C89          N90   1.350       .  A
C89        C3506   1.460       .  S
C91          N92   1.355       .  A
C91          N96   1.364       .  A
C91        C3002   1.490       .  S
N92          C93   1.354       .  A
C93          N94   1.359       .  A
C93        C3590   1.485       .  S
N94          C95   1.361       .  A
C95          N96   1.364       .  A
C95        C2961   1.487   1_565  S
C97          N98   1.351       .  A
C97         N102   1.354       .  A
C97        C2946   1.479   1_455  S
N98          C99   1.352       .  A
C99         N100   1.357       .  A
C99        C2877   1.470       .  S
N100        C101   1.358       .  A
C101        N102   1.356       .  A
C101       C2905   1.468       .  S
C103        N104   1.361       .  A
C103        N108   1.360       .  A
C103       C2862   1.483   1_455  S
N104        C105   1.360       .  A
C105        N106   1.359       .  A
C105       C2821   1.484       .  S
N106        C107   1.357       .  A
C107        N108   1.360       .  A
C107       C2793   1.490       .  S
C109        N110   1.352       .  A
C109        N114   1.355       .  A
C109       C2750   1.468       .  S
N110        C111   1.354       .  A
C111        N112   1.358       .  A
C111       C2778   1.477   1_455  S
N112        C113   1.360       .  A
C113        N114   1.357       .  A
C113       C2890   1.473       .  S
C115        N116   1.358       .  A
C115        N120   1.367       .  A
C115       C2722   1.492   1_455  S
N116        C117   1.354       .  A
C117        N118   1.355       .  A
C117       C2653   1.480       .  S
N118        C119   1.357       .  A
C119        N120   1.366       .  A
C119       C2694   1.495       .  S
C121        N122   1.357       .  A
C121        N126   1.360       .  A
C121       C2625   1.479       .  S
N122        C123   1.355       .  A
C123        N124   1.354       .  A
C123       C2569   1.472       .  S
N124        C125   1.355       .  A
C125        N126   1.360       .  A
C125       C2597   1.490   1_455  S
C127        N128   1.362       .  A
C127        N132   1.358       .  A
C127       C2554   1.496       .  S
N128        C129   1.360       .  A
C129        N130   1.354       .  A
C129       C2666   1.478       .  S
N130        C131   1.354       .  A
C131        N132   1.357       .  A
C131       C2513   1.478   1_455  S
C133        N134   1.358       .  A
C133        N138   1.355       .  A
C133       C2485   1.468   1_455  S
N134        C135   1.359       .  A
C135        N136   1.353       .  A
C135       C2457   1.472       .  S
N136        C137   1.353       .  A
C137        N138   1.356       .  A
C137       C2582   1.471       .  S
C139        N140   1.359       .  A
C139        N144   1.359       .  A
C139       C2414   1.472       .  S
N140        C141   1.360       .  A
C141        N142   1.358       .  A
C141       C2806   1.487       .  S
N142        C143   1.358       .  A
C143        N144   1.358       .  A
C143       C2429   1.486   1_455  S
C145        N146   1.355       .  A
C145        N150   1.355       .  A
C145       C2345   1.473       .  S
N146        C147   1.354       .  A
C147        N148   1.353       .  A
C147       C2373   1.463       .  S
N148        C149   1.355       .  A
C149        N150   1.355       .  A
C149       C2317   1.472       .  S
C151        N152   1.365       .  A
C151        N156   1.357       .  A
C151       C2289   1.498       .  S
N152        C153   1.365       .  A
C153        N154   1.362       .  A
C153       C2261   1.495       .  S
N154        C155   1.361       .  A
C155        N156   1.357       .  A
C155       C2233   1.486       .  S
O157       Zr193   2.442       .  S
O157        C168   1.294       .  A
O158       Zr192   2.430       .  S
O158        C169   1.292       .  A
O159       Zr165   2.451       .  S
O159        C170   1.295       .  A
O160       Zr165   2.437       .  S
O160        C171   1.292       .  A
O161       Zr195   2.421       .  S
O161        C171   1.289       .  A
O162       Zr194   2.443       .  S
O162        C170   1.293       .  A
O163       Zr165   2.440       .  S
O163        C169   1.293       .  A
O164       Zr165   2.445       .  S
O164        C168   1.293       .  A
Zr165       O166   2.345       .  S
Zr165       O167   2.340       .  S
Zr165       O175   2.341       .  S
Zr165       O173   2.337       .  S
O166       Zr192   2.339       .  S
O166       Zr195   2.334       .  S
O167       Zr193   2.340       .  S
O167       Zr194   2.332       .  S
C168       C4038   1.487       .  S
C169       C2541   1.479       .  S
C170       C2274   1.495       .  S
C171       C2638   1.467       .  S
H172        O173   0.960       .  S
O173       Zr192   2.336       .  S
O173       Zr194   2.331       .  S
H174        O175   0.964       .  S
O175       Zr193   2.338       .  S
O175       Zr195   2.339       .  S
O176       Zr192   2.441       .  S
O176        C199   1.293       .  A
O177       Zr193   2.449       .  S
O177        C200   1.294       .  A
O178       Zr194   2.414       .  S
O178        C201   1.289       .  A
O179       Zr195   2.439       .  S
O179        C202   1.292       .  A
O180       Zr195   2.426       .  S
O180        C203   1.290       .  A
O181       Zr194   2.427       .  S
O181        C204   1.290       .  A
O182       Zr196   2.422       .  S
O182        C205   1.290       .  A
O183       Zr196   2.454       .  S
O183        C206   1.295       .  A
O184       Zr194   2.426       .  S
O184        C205   1.290       .  A
O185       Zr195   2.423       .  S
O185        C206   1.289       .  A
O186       Zr192   2.427       .  S
O186        C201   1.290       .  A
O187       Zr193   2.440       .  S
O187        C204   1.293       .  A
O188       Zr193   2.429       .  S
O188        C203   1.291       .  A
O189       Zr192   2.423       .  S
O189        C202   1.290       .  A
O190       Zr196   2.442       .  S
O190        C199   1.293       .  A
O191       Zr196   2.432       .  S
O191        C200   1.291       .  A
Zr192       O198   2.330       .  S
Zr192       O210   2.337       .  S
Zr193       O197   2.343       .  S
Zr193       O208   2.334       .  S
Zr194       O198   2.342       .  S
Zr194       O208   2.341       .  S
Zr195       O197   2.337       .  S
Zr195       O210   2.332       .  S
Zr196       O197   2.331       .  S
Zr196       O198   2.344       .  S
Zr196       O210   2.333       .  S
Zr196       O208   2.354       .  S
C199       C2177   1.483       .  S
C200       C2149   1.477       .  S
C201       C2358   1.475       .  S
C202       C2205   1.474       .  S
C203       C3045   1.473       .  S
C204       C3941   1.480       .  S
C205       C2121   1.476       .  S
C206       C2989   1.484       .  S
H207        O208   0.964       .  S
H209        O210   0.961       .  S
C211        N212   1.359       .  A
C211        N216   1.358       .  A
C211       C2106   1.488       .  S
N212        C213   1.358       .  A
C213        N214   1.357       .  A
C213       C2065   1.479       .  S
N214        C215   1.355       .  A
C215        N216   1.357       .  A
C215       C2037   1.471       .  S
C217        N218   1.357       .  A
C217        N222   1.358       .  A
C217       C2009   1.484       .  S
N218        C219   1.359       .  A
C219        N220   1.361       .  A
C219       C1994   1.490       .  S
N220        C221   1.361       .  A
C221        N222   1.356       .  A
C221       C1953   1.485       .  S
O223       Zr259   2.426       .  S
O223        C234   1.291       .  A
O224       Zr258   2.436       .  S
O224        C235   1.292       .  A
O225       Zr231   2.454       .  S
O225        C236   1.296       .  A
O226       Zr231   2.436       .  S
O226        C237   1.292       .  A
O227       Zr261   2.443       .  S
O227        C237   1.293       .  A
O228       Zr260   2.423       .  S
O228        C236   1.290       .  A
O229       Zr231   2.439       .  S
O229        C235   1.293       .  A
O230       Zr231   2.454       .  S
O230        C234   1.295       .  A
Zr231       O232   2.344       .  S
Zr231       O233   2.338       .  S
Zr231       O241   2.346       .  S
Zr231       O239   2.341       .  S
O232       Zr258   2.328       .  S
O232       Zr261   2.324       .  S
O233       Zr259   2.343       .  S
O233       Zr260   2.345       .  S
C234       C3534   1.479       .  S
C235       C3226   1.483       .  S
C236       C1869   1.488       .  S
C237       C3282   1.477       .  S
H238        O239   0.965       .  S
O239       Zr258   2.334       .  S
O239       Zr260   2.342       .  S
H240        O241   0.969       .  S
O241       Zr259   2.344       .  S
O241       Zr261   2.345       .  S
O242       Zr258   2.427       .  S
O242        C265   1.291       .  A
O243       Zr259   2.443       .  S
O243        C266   1.293       .  A
O244       Zr260   2.452       .  S
O244        C267   1.294       .  A
O245       Zr261   2.447       .  S
O245        C268   1.293       .  A
O246       Zr261   2.413       .  S
O246        C269   1.288       .  A
O247       Zr260   2.437       .  S
O247        C270   1.292       .  A
O248       Zr262   2.416       .  S
O248        C271   1.288       .  A
O249       Zr262   2.437       .  S
O249        C272   1.292       .  A
O250       Zr260   2.440       .  S
O250        C271   1.292       .  A
O251       Zr261   2.425       .  S
O251        C272   1.290       .  A
O252       Zr258   2.419       .  S
O252        C267   1.289       .  A
O253       Zr259   2.435       .  S
O253        C270   1.292       .  A
O254       Zr259   2.437       .  S
O254        C269   1.291       .  A
O255       Zr258   2.415       .  S
O255        C268   1.289       .  A
O256       Zr262   2.437       .  S
O256        C265   1.292       .  A
O257       Zr262   2.449       .  S
O257        C266   1.294       .  A
Zr258       O264   2.332       .  S
Zr258       O276   2.341       .  S
Zr259       O263   2.322       .  S
Zr259       O274   2.338       .  S
Zr260       O264   2.330       .  S
Zr260       O274   2.342       .  S
Zr261       O263   2.336       .  S
Zr261       O276   2.340       .  S
Zr262       O263   2.321       .  S
Zr262       O264   2.337       .  S
Zr262       O276   2.346       .  S
Zr262       O274   2.340       .  S
C265       C1897   1.483       .  S
C266       C1981   1.487       .  S
C267       C1854   1.488       .  S
C268       C1925   1.487       .  S
C269       C2918   1.471       .  S
C270       C3450   1.479       .  S
C271       C2078   1.467       .  S
C272       C2834   1.476       .  S
H273        O274   0.968       .  S
H275        O276   0.969       .  S
C277        N278   1.353       .  A
C277        N282   1.359       .  A
C277       C2190   1.486       .  S
N278        C279   1.354       .  A
C279        N280   1.353       .  A
C279       C1826   1.466       .  S
N280        C281   1.354       .  A
C281        N282   1.357       .  A
C281       C1798   1.468       .  S
C283        N284   1.359       .  A
C283        N288   1.364       .  A
C283       C1757   1.497       .  S
N284        C285   1.358       .  A
C285        N286   1.356       .  A
C285       C1966   1.491       .  S
N286        C287   1.359       .  A
C287        N288   1.364       .  A
C287       C2218   1.494       .  S
C289        N290   1.357       .  A
C289        N294   1.355       .  A
C289       C1742   1.479       .  S
N290        C291   1.358       .  A
C291        N292   1.358       .  A
C291       C1910   1.490       .  S
N292        C293   1.355       .  A
C293        N294   1.355       .  A
C293       C2330   1.469       .  S
C295        N296   1.354       .  A
C295        N300   1.359       .  A
C295       C1938   1.481       .  S
N296        C297   1.353       .  A
C297        N298   1.359       .  A
C297       C1686   1.473       .  S
N298        C299   1.362       .  A
C299        N300   1.362       .  A
C299       C1701   1.492       .  S
O301       Zr337   2.435       .  S
O301        C312   1.292       .  A
O302       Zr336   2.453       .  S
O302        C313   1.295       .  A
O303       Zr309   2.429       .  S
O303        C314   1.291       .  A
O304       Zr309   2.441       .  S
O304        C315   1.292       .  A
O305       Zr339   2.439       .  S
O305        C315   1.292       .  A
O306       Zr338   2.424       .  S
O306        C314   1.290       .  A
O307       Zr309   2.424       .  S
O307        C313   1.290       .  A
O308       Zr309   2.433       .  S
O308        C312   1.291       .  A
Zr309       O310   2.330       .  S
Zr309       O311   2.334       .  S
Zr309       O319   2.342       .  S
Zr309       O317   2.342       .  S
O310       Zr336   2.331       .  S
O310       Zr339   2.336       .  S
O311       Zr337   2.335       .  S
O311       Zr338   2.334       .  S
C312       C4053   1.473       .  S
C313       C2681   1.485       .  S
C314       C2737   1.475       .  S
C315       C1714   1.478       .  S
H316        O317   0.964       .  S
O317       Zr336   2.328       .  S
O317       Zr338   2.333       .  S
H318        O319   0.964       .  S
O319       Zr337   2.355       .  S
O319       Zr339   2.344       .  S
O320       Zr336   2.410       .  S
O320        C343   1.288       .  A
O321       Zr337   2.453       .  S
O321        C344   1.294       .  A
O322       Zr338   2.445       .  S
O322        C345   1.293       .  A
O323       Zr339   2.438       .  S
O323        C346   1.292       .  A
O324       Zr339   2.440       .  S
O324        C347   1.293       .  A
O325       Zr338   2.418       .  S
O325        C348   1.289       .  A
O326       Zr340   2.462       .  S
O326        C349   1.296       .  A
O327       Zr340   2.425       .  S
O327        C350   1.290       .  A
O328       Zr338   2.419       .  S
O328        C349   1.289       .  A
O329       Zr339   2.432       .  S
O329        C350   1.292       .  A
O330       Zr336   2.443       .  S
O330        C345   1.293       .  A
O331       Zr337   2.437       .  S
O331        C348   1.292       .  A
O332       Zr337   2.435       .  S
O332        C347   1.292       .  A
O333       Zr336   2.433       .  S
O333        C346   1.292       .  A
O334       Zr340   2.426       .  S
O334        C343   1.290       .  A
O335       Zr340   2.445       .  S
O335        C344   1.294       .  A
Zr336       O342   2.343       .  S
Zr336       O354   2.348       .  S
Zr337       O341   2.326       .  S
Zr337       O352   2.345       .  S
Zr338       O342   2.325       .  S
Zr338       O352   2.345       .  S
Zr339       O341   2.339       .  S
Zr339       O354   2.339       .  S
Zr340       O341   2.337       .  S
Zr340       O342   2.337       .  S
Zr340       O354   2.351       .  S
Zr340       O352   2.332       .  S
C343       C1813   1.459       .  S
C344       C1658   1.502       .  S
C345       C1770   1.486       .  S
C346       C1729   1.481       .  S
C347       C3982   1.484       .  S
C348       C3562   1.472       .  S
C349       C3478   1.483       .  S
C350       C1617   1.472       .  S
H351        O352   0.965       .  S
H353        O354   0.964       .  S
C355        N356   1.359       .  A
C355        N360   1.354       .  A
C355       C1589   1.490       .  S
N356        C357   1.362       .  A
C357        N358   1.358       .  A
C357       C1561   1.486       .  S
N358        C359   1.357       .  A
C359        N360   1.352       .  A
C359       C1533   1.471       .  S
C361        N362   1.366       .  A
C361        N366   1.363       .  A
C361       C1490   1.499       .  S
N362        C363   1.364       .  A
C363        N364   1.356       .  A
C363       C1505   1.493       .  S
N364        C365   1.355       .  A
C365        N366   1.361       .  A
C365       C2246   1.493       .  S
C367        N368   1.354       .  A
C367        N372   1.362       .  A
C367       C1449   1.473       .  S
N368        C369   1.350       .  A
C369        N370   1.351       .  A
C369       C2134   1.466       .  S
N370        C371   1.355       .  A
C371        N372   1.363       .  A
C371       C1421   1.483       .  S
C373        N374   1.360       .  A
C373        N378   1.362       .  A
C373       C1393   1.495       .  S
N374        C375   1.357       .  A
C375        N376   1.356       .  A
C375       C1365   1.477       .  S
N376        C377   1.358       .  A
C377        N378   1.360       .  A
C377       C2162   1.490       .  S
O379       Zr415   2.429       .  S
O379        C390   1.291       .  A
O380       Zr414   2.430       .  S
O380        C391   1.291       .  A
O381       Zr387   2.433       .  S
O381        C392   1.292       .  A
O382       Zr387   2.455       .  S
O382        C393   1.296       .  A
O383       Zr417   2.432       .  S
O383        C393   1.291       .  A
O384       Zr416   2.448       .  S
O384        C392   1.295       .  A
O385       Zr387   2.465       .  S
O385        C391   1.297       .  A
O386       Zr387   2.467       .  S
O386        C390   1.297       .  A
Zr387       O388   2.334       .  S
Zr387       O389   2.336       .  S
Zr387       O397   2.350       .  S
Zr387       O395   2.354       .  S
O388       Zr414   2.341       .  S
O388       Zr417   2.348       .  S
O389       Zr415   2.338       .  S
O389       Zr416   2.340       .  S
C390       C3730   1.491       .  S
C391       C3310   1.484       .  S
C392       C3366   1.485       .  S
C393       C1406   1.484       .  S
H394        O395   0.963       .  S
O395       Zr414   2.337       .  S
O395       Zr416   2.336       .  S
H396        O397   0.963       .  S
O397       Zr415   2.351       .  S
O397       Zr417   2.350       .  S
O398       Zr414   2.435       .  S
O398        C421   1.292       .  A
O399       Zr415   2.455       .  S
O399        C422   1.296       .  A
O400       Zr416   2.465       .  S
O400        C423   1.297       .  A
O401       Zr417   2.441       .  S
O401        C424   1.292       .  A
O402       Zr417   2.450       .  S
O402        C425   1.294       .  A
O403       Zr416   2.431       .  S
O403        C426   1.292       .  A
O404       Zr418   2.437       .  S
O404        C427   1.292       .  A
O405       Zr418   2.420       .  S
O405        C428   1.288       .  A
O406       Zr416   2.435       .  S
O406        C427   1.292       .  A
O407       Zr417   2.456       .  S
O407        C428   1.295       .  A
O408       Zr414   2.444       .  S
O408        C423   1.293       .  A
O409       Zr415   2.445       .  S
O409        C426   1.293       .  A
O410       Zr415   2.450       .  S
O410        C425   1.295       .  A
O411       Zr414   2.422       .  S
O411        C424   1.289       .  A
O412       Zr418   2.434       .  S
O412        C421   1.291       .  A
O413       Zr418   2.430       .  S
O413        C422   1.290       .  A
Zr414       O420   2.339       .  S
Zr414       O432   2.343       .  S
Zr415       O419   2.338       .  S
Zr415       O430   2.339       .  S
Zr416       O420   2.338       .  S
Zr416       O430   2.348       .  S
Zr417       O419   2.342       .  S
Zr417       O432   2.339       .  S
Zr418       O419   2.347       .  S
Zr418       O420   2.343       .  S
Zr418       O432   2.338       .  S
Zr418       O430   2.333       .  S
C421       C1574   1.476       .  S
C422       C1337   1.484       .  S
C423       C1477   1.503       .  S
C424       C1462   1.464       .  S
C425       C3646   1.495       .  S
C426       C2610   1.484       .  S
C427       C2526   1.484       .  S
C428       C1309   1.472       .  S
H429        O430   0.964       .  S
H431        O432   0.964       .  S
C433        N434   1.361       .  A
C433        N438   1.356       .  A
C433       C1294   1.477       .  S
N434        C435   1.359       .  A
C435        N436   1.355       .  A
C435       C1322   1.484       .  S
N436        C437   1.355       .  A
C437        N438   1.352       .  A
C437       C1785   1.477       .  S
C439        N440   1.360       .  A
C439        N444   1.358       .  A
C439       C1253   1.478       .  S
N440        C441   1.359       .  A
C441        N442   1.361       .  A
C441       C1350   1.484       .  S
N442        C443   1.358       .  A
C443        N444   1.356       .  A
C443       C1225   1.485       .  S
C445        N446   1.359       .  A
C445        N450   1.355       .  A
C445       C1197   1.485       .  S
N446        C447   1.358       .  A
C447        N448   1.356       .  A
C447       C1182   1.483       .  S
N448        C449   1.356       .  A
C449        N450   1.355       .  A
C449       C1630   1.477       .  S
C451        N452   1.359       .  A
C451        N456   1.364       .  A
C451       C1645   1.492       .  S
N452        C453   1.357       .  A
C453        N454   1.358       .  A
C453       C1378   1.484       .  S
N454        C455   1.361       .  A
C455        N456   1.365       .  A
C455       C1141   1.498       .  S
C457        N458   1.357       .  A
C457        N462   1.362       .  A
C457       C1085   1.489       .  S
N458        C459   1.355       .  A
C459        N460   1.352       .  A
C459       C1546   1.475       .  S
N460        C461   1.355       .  A
C461        N462   1.362       .  A
C461       C1113   1.486       .  S
C463        N464   1.362       .  A
C463        N468   1.353       .  A
C463       C1070   1.483       .  S
N464        C465   1.363       .  A
C465        N466   1.360       .  A
C465       C1029   1.478       .  S
N466        C467   1.357       .  A
C467        N468   1.353       .  A
C467       C1673   1.490       .  S
O469       Zr505   2.452       .  S
O469        C480   1.295       .  A
O470       Zr504   2.434       .  S
O470        C481   1.291       .  A
O471       Zr477   2.446       .  S
O471        C482   1.294       .  A
O472       Zr477   2.443       .  S
O472        C483   1.294       .  A
O473       Zr507   2.419       .  S
O473        C483   1.289       .  A
O474       Zr506   2.434       .  S
O474        C482   1.292       .  A
O475       Zr477   2.448       .  S
O475        C481   1.293       .  A
O476       Zr477   2.458       .  S
O476        C480   1.296       .  A
Zr477       O478   2.340       .  S
Zr477       O479   2.356       .  S
Zr477       O487   2.338       .  S
Zr477       O485   2.351       .  S
O478       Zr504   2.331       .  S
O478       Zr507   2.335       .  S
O479       Zr505   2.348       .  S
O479       Zr506   2.342       .  S
C480       C3394   1.487       .  S
C481       C2709   1.472       .  S
C482       C1057   1.473       .  S
C483       C2765   1.477       .  S
H484        O485   0.960       .  S
O485       Zr504   2.326       .  S
O485       Zr506   2.344       .  S
H486        O487   0.963       .  S
O487       Zr505   2.344       .  S
O487       Zr507   2.341       .  S
O488       Zr504   2.403       .  S
O488        C511   1.284       .  A
O489       Zr505   2.463       .  S
O489        C512   1.297       .  A
O490       Zr506   2.419       .  S
O490        C513   1.289       .  A
O491       Zr507   2.445       .  S
O491        C514   1.293       .  A
O492       Zr507   2.422       .  S
O492        C515   1.289       .  A
O493       Zr506   2.424       .  S
O493        C516   1.290       .  A
O494       Zr508   2.419       .  S
O494        C517   1.289       .  A
O495       Zr508   2.452       .  S
O495        C518   1.295       .  A
O496       Zr506   2.429       .  S
O496        C517   1.291       .  A
O497       Zr507   2.434       .  S
O497        C518   1.291       .  A
O498       Zr504   2.440       .  S
O498        C513   1.292       .  A
O499       Zr505   2.458       .  S
O499        C516   1.295       .  A
O500       Zr505   2.416       .  S
O500        C515   1.289       .  A
O501       Zr504   2.422       .  S
O501        C514   1.290       .  A
O502       Zr508   2.458       .  S
O502        C511   1.296       .  A
O503       Zr508   2.433       .  S
O503        C512   1.292       .  A
Zr504       O510   2.326       .  S
Zr504       O522   2.339       .  S
Zr505       O509   2.359       .  S
Zr505       O520   2.319       .  S
Zr506       O510   2.332       .  S
Zr506       O520   2.330       .  S
Zr507       O509   2.344       .  S
Zr507       O522   2.324       .  S
Zr508       O509   2.339       .  S
Zr508       O510   2.336       .  S
Zr508       O522   2.327       .  S
Zr508       O520   2.350       .  S
C511       C1281   1.490       .  S
C512       C1154   1.483       .  S
C513       C1126   1.476       .  S
C514       C1266   1.486       .  S
C515       C3170   1.459       .  S
C516       C3338   1.486       .  S
C517       C1210   1.462       .  S
C518       C3114   1.486       .  S
H519        O520   0.965       .  S
H521        O522   0.968       .  S
C523        N524   1.354       .  A
C523        N528   1.356       .  A
C523        C973   1.469       .  S
N524        C525   1.354       .  A
C525        N526   1.355       .  A
C525       C1001   1.476       .  S
N526        C527   1.356       .  A
C527        N528   1.356       .  A
C527       C1434   1.469       .  S
C529        N530   1.357       .  A
C529        N534   1.360       .  A
C529        C945   1.479       .  S
N530        C531   1.356       .  A
C531        N532   1.357       .  A
C531        C917   1.474       .  S
N532        C533   1.358       .  A
C533        N534   1.359       .  A
C533        C889   1.487       .  S
O535       Zr571   2.449       .  S
O535        C546   1.294       .  A
O536       Zr570   2.437       .  S
O536        C547   1.292       .  A
O537       Zr543   2.465       .  S
O537        C548   1.297       .  A
O538       Zr543   2.425       .  S
O538        C549   1.290       .  A
O539       Zr573   2.441       .  S
O539        C549   1.293       .  A
O540       Zr572   2.423       .  S
O540        C548   1.289       .  A
O541       Zr543   2.444       .  S
O541        C547   1.293       .  A
O542       Zr543   2.429       .  S
O542        C546   1.290       .  A
Zr543       O544   2.345       .  S
Zr543       O545   2.343       .  S
Zr543       O553   2.347       .  S
Zr543       O551   2.328       .  S
O544       Zr570   2.335       .  S
O544       Zr573   2.344       .  S
O545       Zr571   2.354       .  S
O545       Zr572   2.335       .  S
C546       C3870   1.470       .  S
C547       C2442   1.485       .  S
C548       C1518   1.487       .  S
C549       C2498   1.476       .  S
H550        O551   0.961       .  S
O551       Zr570   2.344       .  S
O551       Zr572   2.344       .  S
H552        O553   0.963       .  S
O553       Zr571   2.340       .  S
O553       Zr573   2.340       .  S
O554       Zr570   2.436       .  S
O554        C577   1.292       .  A
O555       Zr571   2.470       .  S
O555        C578   1.299       .  A
O556       Zr572   2.435       .  S
O556        C579   1.293       .  A
O557       Zr573   2.451       .  S
O557        C580   1.295       .  A
O558       Zr573   2.437       .  S
O558        C581   1.292       .  A
O559       Zr572   2.465       .  S
O559        C582   1.297       .  A
O560       Zr574   2.434       .  S
O560        C583   1.291       .  A
O561       Zr574   2.433       .  S
O561        C584   1.291       .  A
O562       Zr572   2.420       .  S
O562        C583   1.289       .  A
O563       Zr573   2.443       .  S
O563        C584   1.293       .  A
O564       Zr570   2.449       .  S
O564        C579   1.295       .  A
O565       Zr571   2.428       .  S
O565        C582   1.291       .  A
O566       Zr571   2.444       .  S
O566        C581   1.294       .  A
O567       Zr570   2.442       .  S
O567        C580   1.293       .  A
O568       Zr574   2.426       .  S
O568        C577   1.290       .  A
O569       Zr574   2.405       .  S
O569        C578   1.286       .  A
Zr570       O576   2.337       .  S
Zr570       O588   2.343       .  S
Zr571       O575   2.341       .  S
Zr571       O586   2.337       .  S
Zr572       O576   2.344       .  S
Zr572       O586   2.330       .  S
Zr573       O575   2.345       .  S
Zr573       O588   2.339       .  S
Zr574       O575   2.341       .  S
Zr574       O576   2.332       .  S
Zr574       O588   2.333       .  S
Zr574       O586   2.339       .  S
C577        C833   1.477       .  S
C578        C958   1.481       .  S
C579       C1602   1.487       .  S
C580        C861   1.487       .  S
C581       C3702   1.477       .  S
C582       C3773   1.502       .  S
C583       C1014   1.473       .  S
C584       C3618   1.484       .  S
H585        O586   0.963       .  S
H587        O588   0.961       .  S
C589        N590   1.356       .  A
C589        N594   1.356       .  A
C589       C1841   1.477       .  S
N590        C591   1.357       .  A
C591        N592   1.359       .  A
C591        C818   1.476       .  S
N592        C593   1.359       .  A
C593        N594   1.356       .  A
C593       C1169   1.481       .  S
C595        N596   1.359       .  A
C595        N600   1.356       .  A
C595       C1882   1.478       .  S
N596        C597   1.359       .  A
C597        N598   1.361       .  A
C597        C777   1.498       .  S
N598        C599   1.361       .  A
C599        N600   1.356       .  A
C599        C902   1.482       .  S
C601        N602   1.358       .  A
C601        N606   1.355       .  A
C601        C749   1.488       .  S
N602        C603   1.362       .  A
C603        N604   1.358       .  A
C603        C846   1.493       .  S
N604        C605   1.356       .  A
C605        N606   1.352       .  A
C605       C2050   1.469       .  S
C607        N608   1.362       .  A
C607        N612   1.362       .  A
C607        C874   1.500       .  S
N608        C609   1.362       .  A
C609        N610   1.358       .  A
C609       C1238   1.490       .  S
N610        C611   1.358       .  A
C611        N612   1.359       .  A
C611        C721   1.484       .  S
O613       Zr649   2.415       .  S
O613        C624   1.289       .  A
O614       Zr648   2.454       .  S
O614        C625   1.295       .  A
O615       Zr621   2.430       .  S
O615        C626   1.291       .  A
O616       Zr621   2.449       .  S
O616        C627   1.295       .  A
O617       Zr651   2.417       .  S
O617        C627   1.288       .  A
O618       Zr650   2.422       .  S
O618        C626   1.291       .  A
O619       Zr621   2.439       .  S
O619        C625   1.292       .  A
O620       Zr621   2.444       .  S
O620        C624   1.293       .  A
Zr621       O622   2.339       .  S
Zr621       O623   2.342       .  S
Zr621       O631   2.342       .  S
Zr621       O629   2.348       .  S
O622       Zr648   2.339       .  S
O622       Zr651   2.337       .  S
O623       Zr649   2.333       .  S
O623       Zr650   2.331       .  S
C624       C3885   1.481       .  S
C625       C2849   1.483       .  S
C626       C2933   1.472       .  S
C627       C1042   1.489       .  S
H628        O629   0.967       .  S
O629       Zr648   2.329       .  S
O629       Zr650   2.343       .  S
H630        O631   0.964       .  S
O631       Zr649   2.341       .  S
O631       Zr651   2.330       .  S
O632       Zr648   2.429       .  S
O632        C655   1.291       .  A
O633       Zr649   2.431       .  S
O633        C656   1.291       .  A
O634       Zr650   2.446       .  S
O634        C657   1.295       .  A
O635       Zr651   2.422       .  S
O635        C658   1.289       .  A
O636       Zr651   2.445       .  S
O636        C659   1.294       .  A
O637       Zr650   2.446       .  S
O637        C660   1.293       .  A
O638       Zr652   2.462       .  S
O638        C661   1.296       .  A
O639       Zr652   2.450       .  S
O639        C662   1.294       .  A
O640       Zr650   2.426       .  S
O640        C661   1.291       .  A
O641       Zr651   2.407       .  S
O641        C662   1.287       .  A
O642       Zr648   2.437       .  S
O642        C657   1.291       .  A
O643       Zr649   2.429       .  S
O643        C660   1.291       .  A
O644       Zr649   2.426       .  S
O644        C659   1.289       .  A
O645       Zr648   2.443       .  S
O645        C658   1.293       .  A
O646       Zr652   2.440       .  S
O646        C655   1.292       .  A
O647       Zr652   2.443       .  S
O647        C656   1.293       .  A
Zr648       O654   2.347       .  S
Zr648       O666   2.336       .  S
Zr649       O653   2.326       .  S
Zr649       O664   2.342       .  S
Zr650       O654   2.333       .  S
Zr650       O664   2.344       .  S
Zr651       O653   2.328       .  S
Zr651       O666   2.335       .  S
Zr652       O653   2.343       .  S
Zr652       O654   2.340       .  S
Zr652       O666   2.341       .  S
Zr652       O664   2.347       .  S
C655        C762   1.468       .  S
C656        C790   1.476       .  S
C657        C734   1.491       .  S
C658       C1098   1.472       .  S
C659       C3801   1.487       .  S
C660       C3142   1.495       .  S
C661       C3086   1.489       .  S
C662        C805   1.469       .  S
H663        O664   0.962       .  S
H665        O666   0.963       .  S
O667       Zr703   2.411       .  S
O667        C678   1.288       .  A
O668       Zr702   2.425       .  S
O668        C679   1.291       .  A
O669       Zr675   2.420       .  S
O669        C680   1.290       .  A
O670       Zr675   2.447       .  S
O670        C681   1.295       .  A
O671       Zr705   2.449       .  S
O671        C681   1.294       .  A
O672       Zr704   2.436       .  S
O672        C680   1.292       .  A
O673       Zr675   2.441       .  S
O673        C679   1.293       .  A
O674       Zr675   2.450       .  S
O674        C678   1.294       .  A
Zr675       O676   2.336       .  S
Zr675       O677   2.339       .  S
Zr675       O685   2.336       .  S
Zr675       O683   2.346       .  S
O676       Zr702   2.342       .  S
O676       Zr705   2.335       .  S
O677       Zr703   2.334       .  S
O677       Zr704   2.332       .  S
C678       C3254   1.484       .  S
C679       C2401   1.474       .  S
C680       C2470   1.478       .  S
C681       C2302   1.497       .  S
H682        O683   0.965       .  S
O683       Zr702   2.338       .  S
O683       Zr704   2.333       .  S
H684        O685   0.965       .  S
O685       Zr703   2.345       .  S
O685       Zr705   2.326       .  S
O686       Zr702   2.431       .  S
O686        C709   1.292       .  A
O687       Zr703   2.438       .  S
O687        C710   1.292       .  A
O688       Zr704   2.428       .  S
O688        C711   1.290       .  A
O689       Zr705   2.417       .  S
O689        C712   1.289       .  A
O690       Zr705   2.439       .  S
O690        C713   1.292       .  A
O691       Zr704   2.419       .  S
O691        C714   1.289       .  A
O692       Zr706   2.471       .  S
O692        C715   1.298       .  A
O693       Zr706   2.436       .  S
O693        C716   1.294       .  A
O694       Zr704   2.434       .  S
O694        C715   1.292       .  A
O695       Zr705   2.415       .  S
O695        C716   1.288       .  A
O696       Zr702   2.425       .  S
O696        C711   1.290       .  A
O697       Zr703   2.415       .  S
O697        C714   1.287       .  A
O698       Zr703   2.423       .  S
O698        C713   1.289       .  A
O699       Zr702   2.429       .  S
O699        C712   1.290       .  A
O700       Zr706   2.441       .  S
O700        C709   1.292       .  A
O701       Zr706   2.417       .  S
O701        C710   1.290       .  A
Zr702       O708   2.333       .  S
Zr702       O720   2.328       .  S
Zr703       O707   2.319       .  S
Zr703       O718   2.339       .  S
Zr704       O708   2.333       .  S
Zr704       O718   2.339       .  S
Zr705       O707   2.336       .  S
Zr705       O720   2.349       .  S
Zr706       O707   2.347       .  S
Zr706       O708   2.326       .  S
Zr706       O720   2.340       .  S
Zr706       O718   2.334       .  S
C709       C2093   1.491       .  S
C710        C930   1.486       .  S
C711       C2022   1.474       .  S
C712       C2386   1.461       .  S
C713       C3198   1.477       .  S
C714       C3030   1.460       .  S
C715       C2974   1.500       .  S
C716        C986   1.479       .  S
H717        O718   0.965       .  S
H719        O720   0.964       .  S
C721        C722   1.413       .  A
C721        C726   1.405       .  A
C722        C723   1.405       .  A
C722        N727   1.438       .  S
C723        C724   1.403       .  A
C723        H728   1.084       .  S
C724        C729   1.488       .  S
C724        C725   1.412       .  A
C725        C726   1.407       .  A
C725        N730   1.438       .  S
C726        H731   1.084       .  S
N727        H747   1.046       .  S
N727        H748   1.046       .  S
C729        C732   1.402       .  A
C729        C736   1.410       .  A
N730        H745   1.046       .  S
N730        H746   1.046       .  S
C732        C733   1.408       .  A
C732        H737   1.084       .  S
C733        C734   1.419       .  A
C733        N738   1.438       .  S
C734        C735   1.407       .  A
C735        C736   1.405       .  A
C735        H739   1.083       .  S
C736        N740   1.438       .  S
N738        H741   1.046       .  S
N738        H742   1.045       .  S
N740        H743   1.046       .  S
N740        H744   1.046       .  S
C749        C750   1.419       .  A
C749        C754   1.410       .  A
C750        C751   1.405       .  A
C750        N755   1.437       .  S
C751        C752   1.399       .  A
C751        H756   1.084       .  S
C752        C757   1.474       .  S
C752        C753   1.405       .  A
C753        C754   1.400       .  A
C753        N758   1.438       .  S
C754        H759   1.083       .  S
N755        H775   1.045       .  S
N755        H776   1.046       .  S
C757        C760   1.399       .  A
C757        C764   1.408       .  A
N758        H773   1.046       .  S
N758        H774   1.046       .  S
C760        C761   1.397       .  A
C760        H765   1.084       .  S
C761        C762   1.419       .  A
C761        N766   1.441       .  S
C762        C763   1.403       .  A
C763        C764   1.404       .  A
C763        H767   1.084       .  S
C764        N768   1.437       .  S
N766        H769   1.046       .  S
N766        H770   1.041       .  S
N768        H771   1.046       .  S
N768        H772   1.046       .  S
C777        C778   1.421       .  A
C777        C782   1.410       .  A
C778        C779   1.407       .  A
C778        N783   1.438       .  S
C779        C780   1.400       .  A
C779        H784   1.084       .  S
C780        C785   1.485       .  S
C780        C781   1.408       .  A
C781        C782   1.406       .  A
C781        N786   1.438       .  S
C782        H787   1.083       .  S
N783        H803   1.046       .  S
N783        H804   1.046       .  S
C785        C788   1.402       .  A
C785        C792   1.412       .  A
N786        H801   1.046       .  S
N786        H802   1.045       .  S
C788        C789   1.404       .  A
C788        H793   1.084       .  S
C789        C790   1.414       .  A
C789        N794   1.439       .  S
C790        C791   1.402       .  A
C791        C792   1.406       .  A
C791        H795   1.084       .  S
C792        N796   1.437       .  S
N794        H797   1.046       .  S
N794        H798   1.046       .  S
N796        H799   1.046       .  S
N796        H800   1.046       .  S
C805        C806   1.411       .  A
C805        C810   1.404       .  A
C806        C807   1.406       .  A
C806        N811   1.438       .  S
C807        C808   1.403       .  A
C807        H812   1.084       .  S
C808        C813   1.469       .  S
C808        C809   1.406       .  A
C809        C810   1.397       .  A
C809        N814   1.439       .  S
C810        H815   1.084       .  S
N811        H831   1.046       .  S
N811        H832   1.046       .  S
C813        C816   1.398       .  A
C813        C820   1.407       .  A
N814        H829   1.046       .  S
N814        H830   1.045       .  S
C816        C817   1.400       .  A
C816        H821   1.084       .  S
C817        C818   1.413       .  A
C817        N822   1.438       .  S
C818        C819   1.406       .  A
C819        C820   1.405       .  A
C819        H823   1.084       .  S
C820        N824   1.438       .  S
N822        H825   1.046       .  S
N822        H826   1.046       .  S
N824        H827   1.046       .  S
N824        H828   1.045       .  S
C833        C834   1.410       .  A
C833        C838   1.408       .  A
C834        C835   1.396       .  A
C834        N839   1.433       .  S
C835        C836   1.398       .  A
C835        H840   1.084       .  S
C836        C841   1.473       .  S
C836        C837   1.408       .  A
C837        C838   1.407       .  A
C837        N842   1.438       .  S
C838        H843   1.084       .  S
N839        H859   1.046       .  S
N839        H860   1.045       .  S
C841        C844   1.398       .  A
C841        C848   1.403       .  A
N842        H857   1.046       .  S
N842        H858   1.046       .  S
C844        C845   1.407       .  A
C844        H849   1.084       .  S
C845        C846   1.423       .  A
C845        N850   1.438       .  S
C846        C847   1.409       .  A
C847        C848   1.400       .  A
C847        H851   1.081       .  S
C848        N852   1.438       .  S
N850        H853   1.046       .  S
N850        H854   1.046       .  S
N852        H855   1.045       .  S
N852        H856   1.046       .  S
C861        C862   1.416       .  A
C861        C866   1.406       .  A
C862        C863   1.406       .  A
C862        N867   1.439       .  S
C863        C864   1.403       .  A
C863        H868   1.084       .  S
C864        C869   1.493       .  S
C864        C865   1.412       .  A
C865        C866   1.410       .  A
C865        N870   1.437       .  S
C866        H871   1.084       .  S
N867        H887   1.046       .  S
N867        H888   1.046       .  S
C869        C872   1.403       .  A
C869        C876   1.410       .  A
N870        H885   1.046       .  S
N870        H886   1.046       .  S
C872        C873   1.410       .  A
C872        H877   1.084       .  S
C873        C874   1.420       .  A
C873        N878   1.438       .  S
C874        C875   1.410       .  A
C875        C876   1.407       .  A
C875        H879   1.083       .  S
C876        N880   1.438       .  S
N878        H881   1.046       .  S
N878        H882   1.045       .  S
N880        H883   1.046       .  S
N880        H884   1.046       .  S
C889        C890   1.415       .  A
C889        C894   1.407       .  A
C890        C891   1.406       .  A
C890        N895   1.438       .  S
C891        C892   1.404       .  A
C891        H896   1.084       .  S
C892        C897   1.487   1_554  S
C892        C893   1.409       .  A
C893        C894   1.404       .  A
C893        N898   1.438       .  S
C894        H899   1.083       .  S
N895        H915   1.045       .  S
N895        H916   1.046       .  S
C897        C900   1.404       .  A
C897        C904   1.410       .  A
N898        H913   1.046       .  S
N898        H914   1.046       .  S
C900        C901   1.409       .  A
C900        H905   1.084       .  S
C901        C902   1.416       .  A
C901        N906   1.438       .  S
C902        C903   1.402       .  A
C903        C904   1.402       .  A
C903        H907   1.083       .  S
C904        N908   1.438       .  S
N906        H909   1.046       .  S
N906        H910   1.045       .  S
N908        H911   1.045       .  S
N908        H912   1.046   1_556  S
C917        C918   1.413       .  A
C917        C922   1.404       .  A
C918        C919   1.403       .  A
C918        N923   1.438       .  S
C919        C920   1.401       .  A
C919        H924   1.084       .  S
C920        C925   1.474       .  S
C920        C921   1.406       .  A
C921        C922   1.403       .  A
C921        N926   1.437       .  S
C922        H927   1.084       .  S
N923        H943   1.046       .  S
N923        H944   1.046       .  S
C925        C928   1.401       .  A
C925        C932   1.403       .  A
N926        H941   1.046       .  S
N926        H942   1.046       .  S
C928        C929   1.407       .  A
C928        H933   1.084       .  S
C929        C930   1.418       .  A
C929        N934   1.438       .  S
C930        C931   1.409       .  A
C931        C932   1.398       .  A
C931        H935   1.083       .  S
C932        N936   1.438       .  S
N934        H937   1.046       .  S
N934        H938   1.046       .  S
N936        H939   1.046       .  S
N936        H940   1.045       .  S
C945        C946   1.412       .  A
C945        C950   1.406       .  A
C946        C947   1.403       .  A
C946        N951   1.438       .  S
C947        C948   1.401       .  A
C947        H952   1.084       .  S
C948        C953   1.479       .  S
C948        C949   1.410       .  A
C949        C950   1.405       .  A
C949        N954   1.438       .  S
C950        H955   1.084       .  S
N951        H971   1.046       .  S
N951        H972   1.046       .  S
C953        C956   1.399       .  A
C953        C960   1.411       .  A
N954        H969   1.046       .  S
N954        H970   1.045       .  S
C956        C957   1.403       .  A
C956        H961   1.084       .  S
C957        C958   1.420       .  A
C957        N962   1.440       .  S
C958        C959   1.401       .  A
C959        C960   1.405       .  A
C959        H963   1.083       .  S
C960        N964   1.437       .  S
N962        H965   1.046       .  S
N962        H966   1.046       .  S
N964        H967   1.045       .  S
N964        H968   1.045       .  S
C973        C974   1.412       .  A
C973        C978   1.403       .  A
C974        C975   1.398       .  A
C974        N979   1.438       .  S
C975        C976   1.399       .  A
C975        H980   1.084       .  S
C976        C981   1.472       .  S
C976        C977   1.409       .  A
C977        C978   1.402       .  A
C977        N982   1.438       .  S
C978        H983   1.084       .  S
N979        H999   1.046       .  S
N979       H1000   1.046       .  S
C981        C984   1.399       .  A
C981        C988   1.407       .  A
N982        H997   1.046       .  S
N982        H998   1.046       .  S
C984        C985   1.401       .  A
C984        H989   1.084       .  S
C985        C986   1.419       .  A
C985        N990   1.439       .  S
C986        C987   1.406       .  A
C987        C988   1.399       .  A
C987        H991   1.083       .  S
C988        N992   1.438       .  S
N990        H993   1.046       .  S
N990        H994   1.046       .  S
N992        H995   1.046       .  S
N992        H996   1.046       .  S
C1001      C1002   1.412       .  A
C1001      C1006   1.405       .  A
C1002      C1003   1.399       .  A
C1002      N1007   1.432       .  S
C1003      C1004   1.399       .  A
C1003      H1008   1.084       .  S
C1004      C1009   1.467       .  S
C1004      C1005   1.406       .  A
C1005      C1006   1.399       .  A
C1005      N1010   1.438       .  S
C1006      H1011   1.083       .  S
N1007      H1027   1.046       .  S
N1007      H1028   1.046       .  S
C1009      C1012   1.398       .  A
C1009      C1016   1.407       .  A
N1010      H1025   1.046       .  S
N1010      H1026   1.046       .  S
C1012      C1013   1.401       .  A
C1012      H1017   1.084       .  S
C1013      C1014   1.413       .  A
C1013      N1018   1.438       .  S
C1014      C1015   1.405       .  A
C1015      C1016   1.400       .  A
C1015      H1019   1.084       .  S
C1016      N1020   1.439       .  S
N1018      H1021   1.046       .  S
N1018      H1022   1.046       .  S
N1020      H1023   1.046       .  S
N1020      H1024   1.046       .  S
C1029      C1030   1.412       .  A
C1029      C1034   1.403       .  A
C1030      C1031   1.404       .  A
C1030      N1035   1.438       .  S
C1031      C1032   1.401       .  A
C1031      H1036   1.084       .  S
C1032      C1037   1.484       .  S
C1032      C1033   1.413       .  A
C1033      C1034   1.408       .  A
C1033      N1038   1.438       .  S
C1034      H1039   1.084       .  S
N1035      H1055   1.046       .  S
N1035      H1056   1.046       .  S
C1037      C1040   1.399       .  A
C1037      C1044   1.411       .  A
N1038      H1053   1.046       .  S
N1038      H1054   1.046       .  S
C1040      C1041   1.403       .  A
C1040      H1045   1.084       .  S
C1041      C1042   1.420       .  A
C1041      N1046   1.439       .  S
C1042      C1043   1.406       .  A
C1043      C1044   1.406       .  A
C1043      H1047   1.083       .  S
C1044      N1048   1.438       .  S
N1046      H1049   1.046       .  S
N1046      H1050   1.046       .  S
N1048      H1051   1.046       .  S
N1048      H1052   1.045       .  S
C1057      C1058   1.410       .  A
C1057      C1062   1.402       .  A
C1058      C1059   1.403       .  A
C1058      N1063   1.433       .  S
C1059      C1060   1.402       .  A
C1059      H1064   1.084       .  S
C1060      C1065   1.476       .  S
C1060      C1061   1.410       .  A
C1061      C1062   1.404       .  A
C1061      N1066   1.439       .  S
C1062      H1067   1.084       .  S
N1063      H1083   1.046       .  S
N1063      H1084   1.046       .  S
C1065      C1068   1.397       .  A
C1065      C1072   1.411       .  A
N1066      H1081   1.046       .  S
N1066      H1082   1.043       .  S
C1068      C1069   1.400       .  A
C1068      H1073   1.084       .  S
C1069      C1070   1.416       .  A
C1069      N1074   1.433       .  S
C1070      C1071   1.404       .  A
C1071      C1072   1.407       .  A
C1071      H1075   1.083       .  S
C1072      N1076   1.439       .  S
N1074      H1077   1.045       .  S
N1074      H1078   1.046       .  S
N1076      H1079   1.045       .  S
N1076      H1080   1.043       .  S
C1085      C1086   1.417       .  A
C1085      C1090   1.411       .  A
C1086      C1087   1.405       .  A
C1086      N1091   1.437       .  S
C1087      C1088   1.399       .  A
C1087      H1092   1.084       .  S
C1088      C1093   1.473       .  S
C1088      C1089   1.405       .  A
C1089      C1090   1.404       .  A
C1089      N1094   1.439       .  S
C1090      H1095   1.083       .  S
N1091      H1111   1.046       .  S
N1091      H1112   1.046       .  S
C1093      C1096   1.400       .  A
C1093      C1100   1.408       .  A
N1094      H1109   1.046       .  S
N1094      H1110   1.045       .  S
C1096      C1097   1.403       .  A
C1096      H1101   1.084       .  S
C1097      C1098   1.415       .  A
C1097      N1102   1.439       .  S
C1098      C1099   1.402       .  A
C1099      C1100   1.403       .  A
C1099      H1103   1.084       .  S
C1100      N1104   1.437       .  S
N1102      H1105   1.046       .  S
N1102      H1106   1.045       .  S
N1104      H1107   1.046       .  S
N1104      H1108   1.045       .  S
C1113      C1114   1.413       .  A
C1113      C1118   1.409       .  A
C1114      C1115   1.406       .  A
C1114      N1119   1.437       .  S
C1115      C1116   1.403       .  A
C1115      H1120   1.084       .  S
C1116      C1121   1.482       .  S
C1116      C1117   1.408       .  A
C1117      C1118   1.401       .  A
C1117      N1122   1.439       .  S
C1118      H1123   1.083       .  S
N1119      H1139   1.046       .  S
N1119      H1140   1.046       .  S
C1121      C1124   1.404       .  A
C1121      C1128   1.409       .  A
N1122      H1137   1.046       .  S
N1122      H1138   1.046       .  S
C1124      C1125   1.403       .  A
C1124      H1129   1.084       .  S
C1125      C1126   1.410       .  A
C1125      N1130   1.438       .  S
C1126      C1127   1.407       .  A
C1127      C1128   1.404       .  A
C1127      H1131   1.084       .  S
C1128      N1132   1.438       .  S
N1130      H1133   1.045       .  S
N1130      H1134   1.045       .  S
N1132      H1135   1.046       .  S
N1132      H1136   1.046       .  S
C1141      C1142   1.417       .  A
C1141      C1146   1.410       .  A
C1142      C1143   1.411       .  A
C1142      N1147   1.437       .  S
C1143      C1144   1.405       .  A
C1143      H1148   1.084       .  S
C1144      C1149   1.492       .  S
C1144      C1145   1.409       .  A
C1145      C1146   1.407       .  A
C1145      N1150   1.438       .  S
C1146      H1151   1.083       .  S
N1147      H1167   1.046       .  S
N1147      H1168   1.046       .  S
C1149      C1152   1.407       .  A
C1149      C1156   1.411       .  A
N1150      H1165   1.046       .  S
N1150      H1166   1.046       .  S
C1152      C1153   1.411       .  A
C1152      H1157   1.083       .  S
C1153      C1154   1.411       .  A
C1153      N1158   1.437       .  S
C1154      C1155   1.405       .  A
C1155      C1156   1.405       .  A
C1155      H1159   1.084       .  S
C1156      N1160   1.438       .  S
N1158      H1161   1.046       .  S
N1158      H1162   1.046       .  S
N1160      H1163   1.046       .  S
N1160      H1164   1.046       .  S
C1169      C1170   1.415       .  A
C1169      C1174   1.402       .  A
C1170      C1171   1.406       .  A
C1170      N1175   1.438       .  S
C1171      C1172   1.403       .  A
C1171      H1176   1.083       .  S
C1172      C1177   1.488       .  S
C1172      C1173   1.414       .  A
C1173      C1174   1.402       .  A
C1173      N1178   1.439       .  S
C1174      H1179   1.083       .  S
N1175      H1195   1.046       .  S
N1175      H1196   1.046       .  S
C1177      C1180   1.404       .  A
C1177      C1184   1.413       .  A
N1178      H1193   1.045       .  S
N1178      H1194   1.046       .  S
C1180      C1181   1.404       .  A
C1180      H1185   1.084       .  S
C1181      C1182   1.413       .  A
C1181      N1186   1.438       .  S
C1182      C1183   1.406       .  A
C1183      C1184   1.404       .  A
C1183      H1187   1.083       .  S
C1184      N1188   1.438       .  S
N1186      H1189   1.046       .  S
N1186      H1190   1.046       .  S
N1188      H1191   1.046       .  S
N1188      H1192   1.045       .  S
C1197      C1198   1.418       .  A
C1197      C1202   1.408       .  A
C1198      C1199   1.399       .  A
C1198      N1203   1.433       .  S
C1199      C1200   1.397       .  A
C1199      H1204   1.084       .  S
C1200      C1205   1.467       .  S
C1200      C1201   1.405       .  A
C1201      C1202   1.401       .  A
C1201      N1206   1.438       .  S
C1202      H1207   1.083       .  S
N1203      H1223   1.046       .  S
N1203      H1224   1.046       .  S
C1205      C1208   1.399       .  A
C1205      C1212   1.407       .  A
N1206      H1221   1.045       .  S
N1206      H1222   1.046       .  S
C1208      C1209   1.398       .  A
C1208      H1213   1.084       .  S
C1209      C1210   1.412       .  A
C1209      N1214   1.439       .  S
C1210      C1211   1.402       .  A
C1211      C1212   1.400       .  A
C1211      H1215   1.084       .  S
C1212      N1216   1.438       .  S
N1214      H1217   1.046       .  S
N1214      H1218   1.046       .  S
N1216      H1219   1.046       .  S
N1216      H1220   1.046       .  S
C1225      C1226   1.413       .  A
C1225      C1230   1.405       .  A
C1226      C1227   1.404       .  A
C1226      N1231   1.432       .  S
C1227      C1228   1.403       .  A
C1227      H1232   1.084       .  S
C1228      C1233   1.489       .  S
C1228      C1229   1.412       .  A
C1229      C1230   1.408       .  A
C1229      N1234   1.437       .  S
C1230      H1235   1.084       .  S
N1231      H1251   1.046       .  S
N1231      H1252   1.046       .  S
C1233      C1236   1.403       .  A
C1233      C1240   1.411       .  A
N1234      H1249   1.046       .  S
N1234      H1250   1.046       .  S
C1236      C1237   1.404   1_565  A
C1236      H1241   1.084       .  S
C1237      C1238   1.411       .  A
C1237      N1242   1.432       .  S
C1238      C1239   1.409       .  A
C1239      C1240   1.409   1_545  A
C1239      H1243   1.083       .  S
C1240      N1244   1.438       .  S
N1242      H1245   1.046       .  S
N1242      H1246   1.045       .  S
N1244      H1247   1.046   1_565  S
N1244      H1248   1.046       .  S
C1253      C1254   1.411       .  A
C1253      C1258   1.405       .  A
C1254      C1255   1.403       .  A
C1254      N1259   1.432       .  S
C1255      C1256   1.402       .  A
C1255      H1260   1.084       .  S
C1256      C1261   1.478       .  S
C1256      C1257   1.408       .  A
C1257      C1258   1.403       .  A
C1257      N1262   1.438       .  S
C1258      H1263   1.084       .  S
N1259      H1279   1.046       .  S
N1259      H1280   1.045       .  S
C1261      C1264   1.404       .  A
C1261      C1268   1.406       .  A
N1262      H1277   1.046       .  S
N1262      H1278   1.046       .  S
C1264      C1265   1.406       .  A
C1264      H1269   1.084       .  S
C1265      C1266   1.413       .  A
C1265      N1270   1.433       .  S
C1266      C1267   1.409       .  A
C1267      C1268   1.400       .  A
C1267      H1271   1.083       .  S
C1268      N1272   1.439       .  S
N1270      H1273   1.046       .  S
N1270      H1274   1.045       .  S
N1272      H1275   1.046       .  S
N1272      H1276   1.046       .  S
C1281      C1282   1.426       .  A
C1281      C1286   1.408       .  A
C1282      C1283   1.398       .  A
C1282      N1287   1.439       .  S
C1283      C1284   1.393       .  A
C1283      H1288   1.084       .  S
C1284      C1289   1.471       .  S
C1284      C1285   1.406       .  A
C1285      C1286   1.406       .  A
C1285      N1290   1.437       .  S
C1286      H1291   1.083       .  S
N1287      H1307   1.046       .  S
N1287      H1308   1.046       .  S
C1289      C1292   1.398       .  A
C1289      C1296   1.407       .  A
N1290      H1305   1.045       .  S
N1290      H1306   1.046       .  S
C1292      C1293   1.402       .  A
C1292      H1297   1.084       .  S
C1293      C1294   1.416       .  A
C1293      N1298   1.438       .  S
C1294      C1295   1.404       .  A
C1295      C1296   1.401       .  A
C1295      H1299   1.083       .  S
C1296      N1300   1.438       .  S
N1298      H1301   1.046       .  S
N1298      H1302   1.046       .  S
N1300      H1303   1.046       .  S
N1300      H1304   1.046       .  S
C1309      C1310   1.411       .  A
C1309      C1314   1.401       .  A
C1310      C1311   1.405       .  A
C1310      N1315   1.438       .  S
C1311      C1312   1.404       .  A
C1311      H1316   1.084       .  S
C1312      C1317   1.485       .  S
C1312      C1313   1.413       .  A
C1313      C1314   1.405       .  A
C1313      N1318   1.438       .  S
C1314      H1319   1.083       .  S
N1315      H1335   1.046       .  S
N1315      H1336   1.046       .  S
C1317      C1320   1.401       .  A
C1317      C1324   1.412       .  A
N1318      H1333   1.046       .  S
N1318      H1334   1.046       .  S
C1320      C1321   1.402       .  A
C1320      H1325   1.084       .  S
C1321      C1322   1.416       .  A
C1321      N1326   1.438       .  S
C1322      C1323   1.405       .  A
C1323      C1324   1.407       .  A
C1323      H1327   1.083       .  S
C1324      N1328   1.438       .  S
N1326      H1329   1.046       .  S
N1326      H1330   1.046       .  S
N1328      H1331   1.046       .  S
N1328      H1332   1.045       .  S
C1337      C1338   1.416       .  A
C1337      C1342   1.403       .  A
C1338      C1339   1.408       .  A
C1338      N1343   1.438       .  S
C1339      C1340   1.402       .  A
C1339      H1344   1.084       .  S
C1340      C1345   1.484       .  S
C1340      C1341   1.411       .  A
C1341      C1342   1.405       .  A
C1341      N1346   1.438       .  S
C1342      H1347   1.084       .  S
N1343      H1363   1.046       .  S
N1343      H1364   1.046       .  S
C1345      C1348   1.400       .  A
C1345      C1352   1.412       .  A
N1346      H1361   1.046       .  S
N1346      H1362   1.046       .  S
C1348      C1349   1.401       .  A
C1348      H1353   1.084       .  S
C1349      C1350   1.410       .  A
C1349      N1354   1.432       .  S
C1350      C1351   1.407       .  A
C1351      C1352   1.409       .  A
C1351      H1355   1.084       .  S
C1352      N1356   1.438       .  S
N1354      H1357   1.046       .  S
N1354      H1358   1.045       .  S
N1356      H1359   1.046       .  S
N1356      H1360   1.046       .  S
C1365      C1366   1.412       .  A
C1365      C1370   1.404       .  A
C1366      C1367   1.404       .  A
C1366      N1371   1.438       .  S
C1367      C1368   1.401       .  A
C1367      H1372   1.084       .  S
C1368      C1373   1.479   1_554  S
C1368      C1369   1.409       .  A
C1369      C1370   1.408       .  A
C1369      N1374   1.438       .  S
C1370      H1375   1.084       .  S
N1371      H1391   1.046       .  S
N1371      H1392   1.046       .  S
C1373      C1376   1.402       .  A
C1373      C1380   1.408       .  A
N1374      H1389   1.046       .  S
N1374      H1390   1.045       .  S
C1376      C1377   1.409       .  A
C1376      H1381   1.084       .  S
C1377      C1378   1.415       .  A
C1377      N1382   1.438       .  S
C1378      C1379   1.404       .  A
C1379      C1380   1.404       .  A
C1379      H1383   1.084       .  S
C1380      N1384   1.438       .  S
N1382      H1385   1.046       .  S
N1382      H1386   1.046       .  S
N1384      H1387   1.045       .  S
N1384      H1388   1.045   1_556  S
C1393      C1394   1.420       .  A
C1393      C1398   1.410       .  A
C1394      C1395   1.406       .  A
C1394      N1399   1.438       .  S
C1395      C1396   1.402       .  A
C1395      H1400   1.084       .  S
C1396      C1401   1.486       .  S
C1396      C1397   1.407       .  A
C1397      C1398   1.405       .  A
C1397      N1402   1.438       .  S
C1398      H1403   1.083       .  S
N1399      H1419   1.045       .  S
N1399      H1420   1.046       .  S
C1401      C1404   1.404       .  A
C1401      C1408   1.409       .  A
N1402      H1417   1.046       .  S
N1402      H1418   1.046       .  S
C1404      C1405   1.409       .  A
C1404      H1409   1.084       .  S
C1405      C1406   1.414       .  A
C1405      N1410   1.438       .  S
C1406      C1407   1.402       .  A
C1407      C1408   1.403       .  A
C1407      H1411   1.078       .  S
C1408      N1412   1.438       .  S
N1410      H1413   1.046       .  S
N1410      H1414   1.046       .  S
N1412      H1415   1.045       .  S
N1412      H1416   1.046       .  S
C1421      C1422   1.414       .  A
C1421      C1426   1.409       .  A
C1422      C1423   1.404       .  A
C1422      N1427   1.437       .  S
C1423      C1424   1.399       .  A
C1423      H1428   1.084       .  S
C1424      C1429   1.467       .  S
C1424      C1425   1.405       .  A
C1425      C1426   1.399       .  A
C1425      N1430   1.439       .  S
C1426      H1431   1.083       .  S
N1427      H1447   1.045       .  S
N1427      H1448   1.046       .  S
C1429      C1432   1.398       .  A
C1429      C1436   1.407       .  A
N1430      H1445   1.046       .  S
N1430      H1446   1.044       .  S
C1432      C1433   1.396       .  A
C1432      H1437   1.084       .  S
C1433      C1434   1.411       .  A
C1433      N1438   1.438       .  S
C1434      C1435   1.406       .  A
C1435      C1436   1.405       .  A
C1435      H1439   1.084       .  S
C1436      N1440   1.437       .  S
N1438      H1441   1.046       .  S
N1438      H1442   1.045       .  S
N1440      H1443   1.046       .  S
N1440      H1444   1.044       .  S
C1449      C1450   1.413       .  A
C1449      C1454   1.404       .  A
C1450      C1451   1.398       .  A
C1450      N1455   1.438       .  S
C1451      C1452   1.397       .  A
C1451      H1456   1.084       .  S
C1452      C1457   1.472       .  S
C1452      C1453   1.408       .  A
C1453      C1454   1.406       .  A
C1453      N1458   1.437       .  S
C1454      H1459   1.084       .  S
N1455      H1475   1.046       .  S
N1455      H1476   1.045       .  S
C1457      C1460   1.404       .  A
C1457      C1464   1.407       .  A
N1458      H1473   1.046       .  S
N1458      H1474   1.045       .  S
C1460      C1461   1.407       .  A
C1460      H1465   1.084       .  S
C1461      C1462   1.409       .  A
C1461      N1466   1.437       .  S
C1462      C1463   1.400       .  A
C1463      C1464   1.397       .  A
C1463      H1467   1.085       .  S
C1464      N1468   1.438       .  S
N1466      H1469   1.046       .  S
N1466      H1470   1.045       .  S
N1468      H1471   1.046       .  S
N1468      H1472   1.046       .  S
C1477      C1478   1.419       .  A
C1477      C1482   1.411       .  A
C1478      C1479   1.413       .  A
C1478      N1483   1.437       .  S
C1479      C1480   1.405       .  A
C1479      H1484   1.084       .  S
C1480      C1485   1.499       .  S
C1480      C1481   1.410       .  A
C1481      C1482   1.411       .  A
C1481      N1486   1.438       .  S
C1482      H1487   1.083       .  S
N1483      H1503   1.045       .  S
N1483      H1504   1.046       .  S
C1485      C1488   1.405       .  A
C1485      C1492   1.411       .  A
N1486      H1501   1.046       .  S
N1486      H1502   1.046       .  S
C1488      C1489   1.410       .  A
C1488      H1493   1.084       .  S
C1489      C1490   1.415       .  A
C1489      N1494   1.432       .  S
C1490      C1491   1.409       .  A
C1491      C1492   1.411       .  A
C1491      H1495   1.083       .  S
C1492      N1496   1.438       .  S
N1494      H1497   1.046       .  S
N1494      H1498   1.045       .  S
N1496      H1499   1.045       .  S
N1496      H1500   1.046       .  S
C1505      C1506   1.420       .  A
C1505      C1510   1.406       .  A
C1506      C1507   1.406       .  A
C1506      N1511   1.438       .  S
C1507      C1508   1.400       .  A
C1507      H1512   1.084       .  S
C1508      C1513   1.489       .  S
C1508      C1509   1.412       .  A
C1509      C1510   1.411       .  A
C1509      N1514   1.437       .  S
C1510      H1515   1.083       .  S
N1511      H1531   1.046       .  S
N1511      H1532   1.046       .  S
C1513      C1516   1.401       .  A
C1513      C1520   1.413       .  A
N1514      H1529   1.046       .  S
N1514      H1530   1.046       .  S
C1516      C1517   1.403       .  A
C1516      H1521   1.084       .  S
C1517      C1518   1.414       .  A
C1517      N1522   1.434       .  S
C1518      C1519   1.404       .  A
C1519      C1520   1.411       .  A
C1519      H1523   1.083       .  S
C1520      N1524   1.437       .  S
N1522      H1525   1.046       .  S
N1522      H1526   1.046       .  S
N1524      H1527   1.046       .  S
N1524      H1528   1.046       .  S
C1533      C1534   1.415       .  A
C1533      C1538   1.404       .  A
C1534      C1535   1.399       .  A
C1534      N1539   1.438       .  S
C1535      C1536   1.398       .  A
C1535      H1540   1.084       .  S
C1536      C1541   1.469       .  S
C1536      C1537   1.406       .  A
C1537      C1538   1.402       .  A
C1537      N1542   1.437       .  S
C1538      H1543   1.084       .  S
N1539      H1559   1.045       .  S
N1539      H1560   1.046       .  S
C1541      C1544   1.398       .  A
C1541      C1548   1.406       .  A
N1542      H1557   1.046       .  S
N1542      H1558   1.046       .  S
C1544      C1545   1.399       .  A
C1544      H1549   1.084       .  S
C1545      C1546   1.416       .  A
C1545      N1550   1.438       .  S
C1546      C1547   1.405       .  A
C1547      C1548   1.401       .  A
C1547      H1551   1.084       .  S
C1548      N1552   1.438       .  S
N1550      H1553   1.046       .  S
N1550      H1554   1.046       .  S
N1552      H1555   1.046       .  S
N1552      H1556   1.045       .  S
C1561      C1562   1.416       .  A
C1561      C1566   1.406       .  A
C1562      C1563   1.405       .  A
C1562      N1567   1.433       .  S
C1563      C1564   1.400       .  A
C1563      H1568   1.084       .  S
C1564      C1569   1.474       .  S
C1564      C1565   1.406       .  A
C1565      C1566   1.402       .  A
C1565      N1570   1.438       .  S
C1566      H1571   1.083       .  S
N1567      H1587   1.046       .  S
N1567      H1588   1.046       .  S
C1569      C1572   1.400       .  A
C1569      C1576   1.407       .  A
N1570      H1585   1.045       .  S
N1570      H1586   1.046       .  S
C1572      C1573   1.403       .  A
C1572      H1577   1.084       .  S
C1573      C1574   1.413       .  A
C1573      N1578   1.438       .  S
C1574      C1575   1.406       .  A
C1575      C1576   1.404       .  A
C1575      H1579   1.084       .  S
C1576      N1580   1.438       .  S
N1578      H1581   1.045       .  S
N1578      H1582   1.045       .  S
N1580      H1583   1.046       .  S
N1580      H1584   1.046       .  S
C1589      C1590   1.415       .  A
C1589      C1594   1.410       .  A
C1590      C1591   1.404       .  A
C1590      N1595   1.432       .  S
C1591      C1592   1.402       .  A
C1591      H1596   1.084       .  S
C1592      C1597   1.479       .  S
C1592      C1593   1.406       .  A
C1593      C1594   1.402       .  A
C1593      N1598   1.438       .  S
C1594      H1599   1.083       .  S
N1595      H1615   1.046       .  S
N1595      H1616   1.045       .  S
C1597      C1600   1.402       .  A
C1597      C1604   1.407       .  A
N1598      H1613   1.046       .  S
N1598      H1614   1.046       .  S
C1600      C1601   1.404       .  A
C1600      H1605   1.084       .  S
C1601      C1602   1.413       .  A
C1601      N1606   1.432       .  S
C1602      C1603   1.408       .  A
C1603      C1604   1.404       .  A
C1603      H1607   1.083       .  S
C1604      N1608   1.438       .  S
N1606      H1609   1.046       .  S
N1606      H1610   1.046       .  S
N1608      H1611   1.046       .  S
N1608      H1612   1.046       .  S
C1617      C1618   1.413       .  A
C1617      C1622   1.402       .  A
C1618      C1619   1.399       .  A
C1618      N1623   1.437       .  S
C1619      C1620   1.399       .  A
C1619      H1624   1.084       .  S
C1620      C1625   1.475       .  S
C1620      C1621   1.411       .  A
C1621      C1622   1.402       .  A
C1621      N1626   1.438       .  S
C1622      H1627   1.083       .  S
N1623      H1643   1.045       .  S
N1623      H1644   1.046       .  S
C1625      C1628   1.400       .  A
C1625      C1632   1.409       .  A
N1626      H1641   1.046       .  S
N1626      H1642   1.046       .  S
C1628      C1629   1.400       .  A
C1628      H1633   1.084       .  S
C1629      C1630   1.414       .  A
C1629      N1634   1.438       .  S
C1630      C1631   1.406       .  A
C1631      C1632   1.401       .  A
C1631      H1635   1.083       .  S
C1632      N1636   1.438       .  S
N1634      H1637   1.046       .  S
N1634      H1638   1.046       .  S
N1636      H1639   1.046       .  S
N1636      H1640   1.046       .  S
C1645      C1646   1.415       .  A
C1645      C1650   1.407       .  A
C1646      C1647   1.412       .  A
C1646      N1651   1.438       .  S
C1647      C1648   1.407       .  A
C1647      H1652   1.084       .  S
C1648      C1653   1.496       .  S
C1648      C1649   1.410       .  A
C1649      C1650   1.406       .  A
C1649      N1654   1.438       .  S
C1650      H1655   1.083       .  S
N1651      H1671   1.046       .  S
N1651      H1672   1.046       .  S
C1653      C1656   1.404       .  A
C1653      C1660   1.410       .  A
N1654      H1669   1.046       .  S
N1654      H1670   1.046       .  S
C1656      C1657   1.411       .  A
C1656      H1661   1.084       .  S
C1657      C1658   1.420       .  A
C1657      N1662   1.438       .  S
C1658      C1659   1.411       .  A
C1659      C1660   1.408       .  A
C1659      H1663   1.083       .  S
C1660      N1664   1.438       .  S
N1662      H1665   1.046       .  S
N1662      H1666   1.046       .  S
N1664      H1667   1.045       .  S
N1664      H1668   1.046       .  S
C1673      C1674   1.414       .  A
C1673      C1678   1.409       .  A
C1674      C1675   1.404   1_655  A
C1674      N1679   1.432       .  S
C1675      C1676   1.404       .  A
C1675      H1680   1.084       .  S
C1676      C1681   1.483       .  S
C1676      C1677   1.407       .  A
C1677      C1678   1.401   1_455  A
C1677      N1682   1.438       .  S
C1678      H1683   1.082       .  S
N1679      H1699   1.046       .  S
N1679      H1700   1.045       .  S
C1681      C1684   1.406       .  A
C1681      C1688   1.410       .  A
N1682      H1697   1.046       .  S
N1682      H1698   1.046       .  S
C1684      C1685   1.407       .  A
C1684      H1689   1.084       .  S
C1685      C1686   1.410       .  A
C1685      N1690   1.438       .  S
C1686      C1687   1.402       .  A
C1687      C1688   1.402       .  A
C1687      H1691   1.084       .  S
C1688      N1692   1.438       .  S
N1690      H1693   1.046       .  S
N1690      H1694   1.046       .  S
N1692      H1695   1.045       .  S
N1692      H1696   1.046       .  S
C1701      C1702   1.416       .  A
C1701      C1706   1.409       .  A
C1702      C1703   1.404       .  A
C1702      N1707   1.432       .  S
C1703      C1704   1.400       .  A
C1703      H1708   1.084       .  S
C1704      C1709   1.481       .  S
C1704      C1705   1.407       .  A
C1705      C1706   1.408       .  A
C1705      N1710   1.438       .  S
C1706      H1711   1.083       .  S
N1707      H1727   1.045       .  S
N1707      H1728   1.046       .  S
C1709      C1712   1.402       .  A
C1709      C1716   1.408       .  A
N1710      H1725   1.045       .  S
N1710      H1726   1.046       .  S
C1712      C1713   1.407       .  A
C1712      H1717   1.084       .  S
C1713      C1714   1.415       .  A
C1713      N1718   1.439       .  S
C1714      C1715   1.403       .  A
C1715      C1716   1.406       .  A
C1715      H1719   1.084       .  S
C1716      N1720   1.437       .  S
N1718      H1721   1.046       .  S
N1718      H1722   1.045       .  S
N1720      H1723   1.046       .  S
N1720      H1724   1.046       .  S
C1729      C1730   1.415       .  A
C1729      C1734   1.408       .  A
C1730      C1731   1.402       .  A
C1730      N1735   1.438       .  S
C1731      C1732   1.398       .  A
C1731      H1736   1.084       .  S
C1732      C1737   1.471       .  S
C1732      C1733   1.406       .  A
C1733      C1734   1.404       .  A
C1733      N1738   1.438       .  S
C1734      H1739   1.084       .  S
N1735      H1755   1.046       .  S
N1735      H1756   1.046       .  S
C1737      C1740   1.399       .  A
C1737      C1744   1.406       .  A
N1738      H1753   1.046       .  S
N1738      H1754   1.045       .  S
C1740      C1741   1.403       .  A
C1740      H1745   1.084       .  S
C1741      C1742   1.415       .  A
C1741      N1746   1.438       .  S
C1742      C1743   1.406       .  A
C1743      C1744   1.402       .  A
C1743      H1747   1.084       .  S
C1744      N1748   1.438       .  S
N1746      H1749   1.046       .  S
N1746      H1750   1.046       .  S
N1748      H1751   1.046       .  S
N1748      H1752   1.045       .  S
C1757      C1758   1.419       .  A
C1757      C1762   1.407       .  A
C1758      C1759   1.408       .  A
C1758      N1763   1.438       .  S
C1759      C1760   1.402       .  A
C1759      H1764   1.084       .  S
C1760      C1765   1.495       .  S
C1760      C1761   1.413       .  A
C1761      C1762   1.410       .  A
C1761      N1766   1.438       .  S
C1762      H1767   1.083       .  S
N1763      H1783   1.046       .  S
N1763      H1784   1.046       .  S
C1765      C1768   1.404       .  A
C1765      C1772   1.414       .  A
N1766      H1781   1.046       .  S
N1766      H1782   1.046       .  S
C1768      C1769   1.408       .  A
C1768      H1773   1.083       .  S
C1769      C1770   1.413       .  A
C1769      N1774   1.438       .  S
C1770      C1771   1.405       .  A
C1771      C1772   1.409       .  A
C1771      H1775   1.084       .  S
C1772      N1776   1.438       .  S
N1774      H1777   1.046       .  S
N1774      H1778   1.046       .  S
N1776      H1779   1.046       .  S
N1776      H1780   1.045       .  S
C1785      C1786   1.418       .  A
C1785      C1790   1.405       .  A
C1786      C1787   1.402       .  A
C1786      N1791   1.438       .  S
C1787      C1788   1.399       .  A
C1787      H1792   1.084       .  S
C1788      C1793   1.469       .  S
C1788      C1789   1.404       .  A
C1789      C1790   1.399       .  A
C1789      N1794   1.438       .  S
C1790      H1795   1.084       .  S
N1791      H1811   1.045       .  S
N1791      H1812   1.046       .  S
C1793      C1796   1.400       .  A
C1793      C1800   1.406       .  A
N1794      H1809   1.046       .  S
N1794      H1810   1.045       .  S
C1796      C1797   1.400       .  A
C1796      H1801   1.084       .  S
C1797      C1798   1.411       .  A
C1797      N1802   1.438       .  S
C1798      C1799   1.404       .  A
C1799      C1800   1.401       .  A
C1799      H1803   1.084       .  S
C1800      N1804   1.438       .  S
N1802      H1805   1.046       .  S
N1802      H1806   1.045       .  S
N1804      H1807   1.046       .  S
N1804      H1808   1.046       .  S
C1813      C1814   1.409       .  A
C1813      C1818   1.403       .  A
C1814      C1815   1.399       .  A
C1814      N1819   1.438       .  S
C1815      C1816   1.401       .  A
C1815      H1820   1.084       .  S
C1816      C1821   1.464       .  S
C1816      C1817   1.406       .  A
C1817      C1818   1.396       .  A
C1817      N1822   1.438       .  S
C1818      H1823   1.085       .  S
N1819      H1839   1.045       .  S
N1819      H1840   1.046       .  S
C1821      C1824   1.399       .  A
C1821      C1828   1.406       .  A
N1822      H1837   1.046       .  S
N1822      H1838   1.046       .  S
C1824      C1825   1.399       .  A
C1824      H1829   1.084       .  S
C1825      C1826   1.412       .  A
C1825      N1830   1.438       .  S
C1826      C1827   1.403       .  A
C1827      C1828   1.397       .  A
C1827      H1831   1.084       .  S
C1828      N1832   1.438       .  S
N1830      H1833   1.046       .  S
N1830      H1834   1.045       .  S
N1832      H1835   1.046       .  S
N1832      H1836   1.046       .  S
C1841      C1842   1.413       .  A
C1841      C1846   1.403       .  A
C1842      C1843   1.404       .  A
C1842      N1847   1.438       .  S
C1843      C1844   1.402       .  A
C1843      H1848   1.084       .  S
C1844      C1849   1.483       .  S
C1844      C1845   1.411       .  A
C1845      C1846   1.403       .  A
C1845      N1850   1.438       .  S
C1846      H1851   1.084       .  S
N1847      H1867   1.046       .  S
N1847      H1868   1.045       .  S
C1849      C1852   1.402       .  A
C1849      C1856   1.410       .  A
N1850      H1865   1.046       .  S
N1850      H1866   1.046       .  S
C1852      C1853   1.402       .  A
C1852      H1857   1.084       .  S
C1853      C1854   1.413       .  A
C1853      N1858   1.432       .  S
C1854      C1855   1.410       .  A
C1855      C1856   1.404       .  A
C1855      H1859   1.083       .  S
C1856      N1860   1.439       .  S
N1858      H1861   1.046       .  S
N1858      H1862   1.046       .  S
N1860      H1863   1.046       .  S
N1860      H1864   1.046       .  S
C1869      C1870   1.414       .  A
C1869      C1874   1.408       .  A
C1870      C1871   1.406       .  A
C1870      N1875   1.436       .  S
C1871      C1872   1.402       .  A
C1871      H1876   1.084       .  S
C1872      C1877   1.486       .  S
C1872      C1873   1.411       .  A
C1873      C1874   1.404       .  A
C1873      N1878   1.439       .  S
C1874      H1879   1.083       .  S
N1875      H1895   1.044       .  S
N1875      H1896   1.045       .  S
C1877      C1880   1.403       .  A
C1877      C1884   1.413       .  A
N1878      H1893   1.045       .  S
N1878      H1894   1.046       .  S
C1880      C1881   1.403       .  A
C1880      H1885   1.084       .  S
C1881      C1882   1.411       .  A
C1881      N1886   1.438       .  S
C1882      C1883   1.405       .  A
C1883      C1884   1.406       .  A
C1883      H1887   1.084       .  S
C1884      N1888   1.438       .  S
N1886      H1889   1.046       .  S
N1886      H1890   1.045       .  S
N1888      H1891   1.046       .  S
N1888      H1892   1.046       .  S
C1897      C1898   1.415       .  A
C1897      C1902   1.408       .  A
C1898      C1899   1.404       .  A
C1898      N1903   1.438       .  S
C1899      C1900   1.401       .  A
C1899      H1904   1.084       .  S
C1900      C1905   1.475       .  S
C1900      C1901   1.406       .  A
C1901      C1902   1.401       .  A
C1901      N1906   1.438       .  S
C1902      H1907   1.084       .  S
N1903      H1923   1.046       .  S
N1903      H1924   1.046       .  S
C1905      C1908   1.399       .  A
C1905      C1912   1.404       .  A
N1906      H1921   1.046       .  S
N1906      H1922   1.046       .  S
C1908      C1909   1.403       .  A
C1908      H1913   1.084       .  S
C1909      C1910   1.420       .  A
C1909      N1914   1.438       .  S
C1910      C1911   1.410       .  A
C1911      C1912   1.402       .  A
C1911      H1915   1.083       .  S
C1912      N1916   1.438       .  S
N1914      H1917   1.046       .  S
N1914      H1918   1.046       .  S
N1916      H1919   1.046       .  S
N1916      H1920   1.046       .  S
C1925      C1926   1.415       .  A
C1925      C1930   1.409       .  A
C1926      C1927   1.406       .  A
C1926      N1931   1.438       .  S
C1927      C1928   1.405       .  A
C1927      H1932   1.083       .  S
C1928      C1933   1.485       .  S
C1928      C1929   1.408       .  A
C1929      C1930   1.400       .  A
C1929      N1934   1.439       .  S
C1930      H1935   1.083       .  S
N1931      H1951   1.045       .  S
N1931      H1952   1.046       .  S
C1933      C1936   1.405       .  A
C1933      C1940   1.410       .  A
N1934      H1949   1.046       .  S
N1934      H1950   1.046       .  S
C1936      C1937   1.406       .  A
C1936      H1941   1.084       .  S
C1937      C1938   1.412       .  A
C1937      N1942   1.437       .  S
C1938      C1939   1.405       .  A
C1939      C1940   1.402       .  A
C1939      H1943   1.084       .  S
C1940      N1944   1.438       .  S
N1942      H1945   1.046       .  S
N1942      H1946   1.046       .  S
N1944      H1947   1.046       .  S
N1944      H1948   1.046       .  S
C1953      C1954   1.417       .  A
C1953      C1958   1.404       .  A
C1954      C1955   1.408       .  A
C1954      N1959   1.438       .  S
C1955      C1956   1.403   1_545  A
C1955      H1960   1.084   1_545  S
C1956      C1961   1.486       .  S
C1956      C1957   1.409   1_565  A
C1957      C1958   1.404       .  A
C1957      N1962   1.437   1_545  S
C1958      H1963   1.083       .  S
N1959      H1979   1.046       .  S
N1959      H1980   1.046       .  S
C1961      C1964   1.402       .  A
C1961      C1968   1.409       .  A
N1962      H1977   1.046   1_565  S
N1962      H1978   1.046       .  S
C1964      C1965   1.405       .  A
C1964      H1969   1.084       .  S
C1965      C1966   1.417       .  A
C1965      N1970   1.438       .  S
C1966      C1967   1.409       .  A
C1967      C1968   1.408       .  A
C1967      H1971   1.083       .  S
C1968      N1972   1.438       .  S
N1970      H1973   1.046       .  S
N1970      H1974   1.046       .  S
N1972      H1975   1.046       .  S
N1972      H1976   1.046       .  S
C1981      C1982   1.415       .  A
C1981      C1986   1.405       .  A
C1982      C1983   1.409       .  A
C1982      N1987   1.438       .  S
C1983      C1984   1.403       .  A
C1983      H1988   1.084       .  S
C1984      C1989   1.487       .  S
C1984      C1985   1.410       .  A
C1985      C1986   1.407       .  A
C1985      N1990   1.438       .  S
C1986      H1991   1.084       .  S
N1987      H2007   1.046       .  S
N1987      H2008   1.046       .  S
C1989      C1992   1.401       .  A
C1989      C1996   1.410       .  A
N1990      H2005   1.046       .  S
N1990      H2006   1.046       .  S
C1992      C1993   1.406       .  A
C1992      H1997   1.084       .  S
C1993      C1994   1.417       .  A
C1993      N1998   1.438       .  S
C1994      C1995   1.407       .  A
C1995      C1996   1.408       .  A
C1995      H1999   1.083       .  S
C1996      N2000   1.438       .  S
N1998      H2001   1.046       .  S
N1998      H2002   1.046       .  S
N2000      H2003   1.046       .  S
N2000      H2004   1.046       .  S
C2009      C2010   1.417       .  A
C2009      C2014   1.406       .  A
C2010      C2011   1.406       .  A
C2010      N2015   1.438       .  S
C2011      C2012   1.402       .  A
C2011      H2016   1.084       .  S
C2012      C2017   1.477       .  S
C2012      C2013   1.407       .  A
C2013      C2014   1.400       .  A
C2013      N2018   1.438       .  S
C2014      H2019   1.083       .  S
N2015      H2035   1.046       .  S
N2015      H2036   1.046       .  S
C2017      C2020   1.400       .  A
C2017      C2024   1.409       .  A
N2018      H2033   1.046       .  S
N2018      H2034   1.046       .  S
C2020      C2021   1.400       .  A
C2020      H2025   1.084       .  S
C2021      C2022   1.414       .  A
C2021      N2026   1.439       .  S
C2022      C2023   1.405       .  A
C2023      C2024   1.404       .  A
C2023      H2027   1.084       .  S
C2024      N2028   1.437       .  S
N2026      H2029   1.046       .  S
N2026      H2030   1.045       .  S
N2028      H2031   1.046       .  S
N2028      H2032   1.046       .  S
C2037      C2038   1.412       .  A
C2037      C2042   1.401       .  A
C2038      C2039   1.406       .  A
C2038      N2043   1.437       .  S
C2039      C2040   1.400       .  A
C2039      H2044   1.084       .  S
C2040      C2045   1.470       .  S
C2040      C2041   1.408       .  A
C2041      C2042   1.399       .  A
C2041      N2046   1.439       .  S
C2042      H2047   1.084       .  S
N2043      H2063   1.046       .  S
N2043      H2064   1.046       .  S
C2045      C2048   1.399       .  A
C2045      C2052   1.407       .  A
N2046      H2061   1.046       .  S
N2046      H2062   1.045       .  S
C2048      C2049   1.399       .  A
C2048      H2053   1.084       .  S
C2049      C2050   1.412       .  A
C2049      N2054   1.439       .  S
C2050      C2051   1.403       .  A
C2051      C2052   1.405       .  A
C2051      H2055   1.084       .  S
C2052      N2056   1.437       .  S
N2054      H2057   1.046       .  S
N2054      H2058   1.046       .  S
N2056      H2059   1.046       .  S
N2056      H2060   1.045       .  S
C2065      C2066   1.416       .  A
C2065      C2070   1.404       .  A
C2066      C2067   1.403       .  A
C2066      N2071   1.438       .  S
C2067      C2068   1.400       .  A
C2067      H2072   1.084       .  S
C2068      C2073   1.476       .  S
C2068      C2069   1.410       .  A
C2069      C2070   1.402       .  A
C2069      N2074   1.438       .  S
C2070      H2075   1.084       .  S
N2071      H2091   1.045       .  S
N2071      H2092   1.046       .  S
C2073      C2076   1.401       .  A
C2073      C2080   1.411       .  A
N2074      H2089   1.046       .  S
N2074      H2090   1.045       .  S
C2076      C2077   1.398       .  A
C2076      H2081   1.084       .  S
C2077      C2078   1.410       .  A
C2077      N2082   1.439       .  S
C2078      C2079   1.402       .  A
C2079      C2080   1.405       .  A
C2079      H2083   1.084       .  S
C2080      N2084   1.437       .  S
N2082      H2085   1.046       .  S
N2082      H2086   1.046       .  S
N2084      H2087   1.046       .  S
N2084      H2088   1.046       .  S
C2093      C2094   1.419       .  A
C2093      C2098   1.409       .  A
C2094      C2095   1.408       .  A
C2094      N2099   1.438       .  S
C2095      C2096   1.400       .  A
C2095      H2100   1.084       .  S
C2096      C2101   1.476       .  S
C2096      C2097   1.405       .  A
C2097      C2098   1.401       .  A
C2097      N2102   1.439       .  S
C2098      H2103   1.083       .  S
N2099      H2119   1.045       .  S
N2099      H2120   1.046       .  S
C2101      C2104   1.399       .  A
C2101      C2108   1.406       .  A
N2102      H2117   1.046       .  S
N2102      H2118   1.044       .  S
C2104      C2105   1.405       .  A
C2104      H2109   1.084       .  S
C2105      C2106   1.418       .  A
C2105      N2110   1.438       .  S
C2106      C2107   1.409       .  A
C2107      C2108   1.405       .  A
C2107      H2111   1.083       .  S
C2108      N2112   1.438       .  S
N2110      H2113   1.045       .  S
N2110      H2114   1.046       .  S
N2112      H2115   1.046       .  S
N2112      H2116   1.044       .  S
C2121      C2122   1.417       .  A
C2121      C2126   1.408       .  A
C2122      C2123   1.398       .  A
C2122      N2127   1.439       .  S
C2123      C2124   1.397       .  A
C2123      H2128   1.084       .  S
C2124      C2129   1.465       .  S
C2124      C2125   1.403       .  A
C2125      C2126   1.402       .  A
C2125      N2130   1.437       .  S
C2126      H2131   1.084       .  S
N2127      H2147   1.046       .  S
N2127      H2148   1.045       .  S
C2129      C2132   1.400       .  A
C2129      C2136   1.405       .  A
N2130      H2145   1.045       .  S
N2130      H2146   1.046       .  S
C2132      C2133   1.398       .  A
C2132      H2137   1.084       .  S
C2133      C2134   1.409       .  A
C2133      N2138   1.432       .  S
C2134      C2135   1.403       .  A
C2135      C2136   1.399       .  A
C2135      H2139   1.084       .  S
C2136      N2140   1.437       .  S
N2138      H2141   1.046       .  S
N2138      H2142   1.046       .  S
N2140      H2143   1.046       .  S
N2140      H2144   1.046       .  S
C2149      C2150   1.413       .  A
C2149      C2154   1.404       .  A
C2150      C2151   1.404       .  A
C2150      N2155   1.439       .  S
C2151      C2152   1.401       .  A
C2151      H2156   1.084       .  S
C2152      C2157   1.481       .  S
C2152      C2153   1.410       .  A
C2153      C2154   1.408       .  A
C2153      N2158   1.437       .  S
C2154      H2159   1.084       .  S
N2155      H2175   1.046       .  S
N2155      H2176   1.046       .  S
C2157      C2160   1.399       .  A
C2157      C2164   1.408       .  A
N2158      H2173   1.046       .  S
N2158      H2174   1.046       .  S
C2160      C2161   1.402       .  A
C2160      H2165   1.084       .  S
C2161      C2162   1.415       .  A
C2161      N2166   1.432       .  S
C2162      C2163   1.409       .  A
C2163      C2164   1.409       .  A
C2163      H2167   1.083       .  S
C2164      N2168   1.437       .  S
N2166      H2169   1.045       .  S
N2166      H2170   1.046       .  S
N2168      H2171   1.046       .  S
N2168      H2172   1.046       .  S
C2177      C2178   1.414       .  A
C2177      C2182   1.405       .  A
C2178      C2179   1.405       .  A
C2178      N2183   1.438       .  S
C2179      C2180   1.403       .  A
C2179      H2184   1.084       .  S
C2180      C2185   1.483       .  S
C2180      C2181   1.410       .  A
C2181      C2182   1.404       .  A
C2181      N2186   1.438       .  S
C2182      H2187   1.084       .  S
N2183      H2203   1.046       .  S
N2183      H2204   1.046       .  S
C2185      C2188   1.401       .  A
C2185      C2192   1.409       .  A
N2186      H2201   1.046       .  S
N2186      H2202   1.046       .  S
C2188      C2189   1.403       .  A
C2188      H2193   1.084       .  S
C2189      C2190   1.420       .  A
C2189      N2194   1.438       .  S
C2190      C2191   1.406       .  A
C2191      C2192   1.402       .  A
C2191      H2195   1.083       .  S
C2192      N2196   1.438       .  S
N2194      H2197   1.046       .  S
N2194      H2198   1.045       .  S
N2196      H2199   1.046       .  S
N2196      H2200   1.046       .  S
C2205      C2206   1.410       .  A
C2205      C2210   1.403       .  A
C2206      C2207   1.407       .  A
C2206      N2211   1.438       .  S
C2207      C2208   1.405       .  A
C2207      H2212   1.084       .  S
C2208      C2213   1.485       .  S
C2208      C2209   1.411       .  A
C2209      C2210   1.401       .  A
C2209      N2214   1.438       .  S
C2210      H2215   1.084       .  S
N2211      H2231   1.046       .  S
N2211      H2232   1.046       .  S
C2213      C2216   1.403       .  A
C2213      C2220   1.408       .  A
N2214      H2229   1.046       .  S
N2214      H2230   1.046       .  S
C2216      C2217   1.408       .  A
C2216      H2221   1.084       .  S
C2217      C2218   1.417       .  A
C2217      N2222   1.437       .  S
C2218      C2219   1.410       .  A
C2219      C2220   1.404       .  A
C2219      H2223   1.083       .  S
C2220      N2224   1.439       .  S
N2222      H2225   1.046       .  S
N2222      H2226   1.046       .  S
N2224      H2227   1.046       .  S
N2224      H2228   1.046       .  S
C2233      C2234   1.413       .  A
C2233      C2238   1.405       .  A
C2234      C2235   1.409       .  A
C2234      N2239   1.437       .  S
C2235      C2236   1.405       .  A
C2235      H2240   1.084       .  S
C2236      C2241   1.490       .  S
C2236      C2237   1.412       .  A
C2237      C2238   1.405       .  A
C2237      N2242   1.438       .  S
C2238      H2243   1.084       .  S
N2239      H2259   1.046       .  S
N2239      H2260   1.046       .  S
C2241      C2244   1.402   1_455  A
C2241      C2248   1.411   1_455  A
N2242      H2257   1.046       .  S
N2242      H2258   1.045       .  S
C2244      C2245   1.407       .  A
C2244      H2249   1.084   1_655  S
C2245      C2246   1.419       .  A
C2245      N2250   1.438       .  S
C2246      C2247   1.407       .  A
C2247      C2248   1.406       .  A
C2247      H2251   1.083       .  S
C2248      N2252   1.438   1_655  S
N2250      H2253   1.046       .  S
N2250      H2254   1.045       .  S
N2252      H2255   1.046   1_455  S
N2252      H2256   1.046       .  S
C2261      C2262   1.417       .  A
C2261      C2266   1.407       .  A
C2262      C2263   1.409       .  A
C2262      N2267   1.438       .  S
C2263      C2264   1.404       .  A
C2263      H2268   1.084       .  S
C2264      C2269   1.498       .  S
C2264      C2265   1.413       .  A
C2265      C2266   1.411       .  A
C2265      N2270   1.438       .  S
C2266      H2271   1.083       .  S
N2267      H2287   1.045       .  S
N2267      H2288   1.046       .  S
C2269      C2272   1.404       .  A
C2269      C2276   1.413       .  A
N2270      H2285   1.046       .  S
N2270      H2286   1.046       .  S
C2272      C2273   1.409       .  A
C2272      H2277   1.084       .  S
C2273      C2274   1.419       .  A
C2273      N2278   1.439       .  S
C2274      C2275   1.407       .  A
C2275      C2276   1.410       .  A
C2275      H2279   1.084       .  S
C2276      N2280   1.437       .  S
N2278      H2281   1.046       .  S
N2278      H2282   1.046       .  S
N2280      H2283   1.046       .  S
N2280      H2284   1.046       .  S
C2289      C2290   1.421       .  A
C2289      C2294   1.407       .  A
C2290      C2291   1.409       .  A
C2290      N2295   1.438       .  S
C2291      C2292   1.403       .  A
C2291      H2296   1.084       .  S
C2292      C2297   1.495       .  S
C2292      C2293   1.411       .  A
C2293      C2294   1.409       .  A
C2293      N2298   1.437       .  S
C2294      H2299   1.083       .  S
N2295      H2315   1.046       .  S
N2295      H2316   1.045       .  S
C2297      C2300   1.405       .  A
C2297      C2304   1.411       .  A
N2298      H2313   1.045       .  S
N2298      H2314   1.046       .  S
C2300      C2301   1.408       .  A
C2300      H2305   1.084       .  S
C2301      C2302   1.415       .  A
C2301      N2306   1.432       .  S
C2302      C2303   1.408       .  A
C2303      C2304   1.408       .  A
C2303      H2307   1.082       .  S
C2304      N2308   1.438       .  S
N2306      H2309   1.046       .  S
N2306      H2310   1.046       .  S
N2308      H2311   1.045       .  S
N2308      H2312   1.046       .  S
C2317      C2318   1.414       .  A
C2317      C2322   1.404       .  A
C2318      C2319   1.401       .  A
C2318      N2323   1.438       .  S
C2319      C2320   1.401       .  A
C2319      H2324   1.084       .  S
C2320      C2325   1.469       .  S
C2320      C2321   1.405       .  A
C2321      C2322   1.395       .  A
C2321      N2326   1.433       .  S
C2322      H2327   1.084       .  S
N2323      H2343   1.045       .  S
N2323      H2344   1.046       .  S
C2325      C2328   1.400       .  A
C2325      C2332   1.408       .  A
N2326      H2341   1.046       .  S
N2326      H2342   1.046       .  S
C2328      C2329   1.397       .  A
C2328      H2333   1.084       .  S
C2329      C2330   1.411       .  A
C2329      N2334   1.439       .  S
C2330      C2331   1.405       .  A
C2331      C2332   1.404       .  A
C2331      H2335   1.084       .  S
C2332      N2336   1.438       .  S
N2334      H2337   1.046       .  S
N2334      H2338   1.046       .  S
N2336      H2339   1.046       .  S
N2336      H2340   1.043       .  S
C2345      C2346   1.415       .  A
C2345      C2350   1.406       .  A
C2346      C2347   1.398       .  A
C2346      N2351   1.438       .  S
C2347      C2348   1.395       .  A
C2347      H2352   1.084       .  S
C2348      C2353   1.460       .  S
C2348      C2349   1.405       .  A
C2349      C2350   1.400       .  A
C2349      N2354   1.439       .  S
C2350      H2355   1.083       .  S
N2351      H2371   1.046       .  S
N2351      H2372   1.046       .  S
C2353      C2356   1.396       .  A
C2353      C2360   1.404       .  A
N2354      H2369   1.046       .  S
N2354      H2370   1.045       .  S
C2356      C2357   1.400       .  A
C2356      H2361   1.084       .  S
C2357      C2358   1.417       .  A
C2357      N2362   1.438       .  S
C2358      C2359   1.406       .  A
C2359      C2360   1.397       .  A
C2359      H2363   1.083       .  S
C2360      N2364   1.439       .  S
N2362      H2365   1.046       .  S
N2362      H2366   1.046       .  S
N2364      H2367   1.045       .  S
N2364      H2368   1.046       .  S
C2373      C2374   1.410       .  A
C2373      C2378   1.399       .  A
C2374      C2375   1.400       .  A
C2374      N2379   1.438       .  S
C2375      C2376   1.403       .  A
C2375      H2380   1.083       .  S
C2376      C2381   1.478       .  S
C2376      C2377   1.412       .  A
C2377      C2378   1.399       .  A
C2377      N2382   1.438       .  S
C2378      H2383   1.084       .  S
N2379      H2399   1.046       .  S
N2379      H2400   1.045       .  S
C2381      C2384   1.404       .  A
C2381      C2388   1.413       .  A
N2382      H2397   1.046       .  S
N2382      H2398   1.046       .  S
C2384      C2385   1.396       .  A
C2384      H2389   1.084       .  S
C2385      C2386   1.404       .  A
C2385      N2390   1.433       .  S
C2386      C2387   1.401       .  A
C2387      C2388   1.401       .  A
C2387      H2391   1.084       .  S
C2388      N2392   1.438       .  S
N2390      H2393   1.045       .  S
N2390      H2394   1.046       .  S
N2392      H2395   1.046       .  S
N2392      H2396   1.045       .  S
C2401      C2402   1.411       .  A
C2401      C2406   1.406       .  A
C2402      C2403   1.405       .  A
C2402      N2407   1.437       .  S
C2403      C2404   1.401       .  A
C2403      H2408   1.084       .  S
C2404      C2409   1.473       .  S
C2404      C2405   1.406       .  A
C2405      C2406   1.402       .  A
C2405      N2410   1.438       .  S
C2406      H2411   1.084       .  S
N2407      H2427   1.046       .  S
N2407      H2428   1.046       .  S
C2409      C2412   1.400       .  A
C2409      C2416   1.408       .  A
N2410      H2425   1.046       .  S
N2410      H2426   1.045       .  S
C2412      C2413   1.401       .  A
C2412      H2417   1.084       .  S
C2413      C2414   1.408       .  A
C2413      N2418   1.432       .  S
C2414      C2415   1.403       .  A
C2415      C2416   1.406       .  A
C2415      H2419   1.084       .  S
C2416      N2420   1.437       .  S
N2418      H2421   1.045       .  S
N2418      H2422   1.046       .  S
N2420      H2423   1.045       .  S
N2420      H2424   1.046       .  S
C2429      C2430   1.414       .  A
C2429      C2434   1.407       .  A
C2430      C2431   1.403       .  A
C2430      N2435   1.432   1_655  S
C2431      C2432   1.401       .  A
C2431      H2436   1.084       .  S
C2432      C2437   1.481       .  S
C2432      C2433   1.408       .  A
C2433      C2434   1.405       .  A
C2433      N2438   1.437       .  S
C2434      H2439   1.083       .  S
N2435      H2455   1.046   1_455  S
N2435      H2456   1.046       .  S
C2437      C2440   1.400       .  A
C2437      C2444   1.410       .  A
N2438      H2453   1.046       .  S
N2438      H2454   1.046       .  S
C2440      C2441   1.401       .  A
C2440      H2445   1.084       .  S
C2441      C2442   1.413       .  A
C2441      N2446   1.433       .  S
C2442      C2443   1.407       .  A
C2443      C2444   1.409       .  A
C2443      H2447   1.084       .  S
C2444      N2448   1.437       .  S
N2446      H2449   1.046       .  S
N2446      H2450   1.045       .  S
N2448      H2451   1.046       .  S
N2448      H2452   1.046       .  S
C2457      C2458   1.410       .  A
C2457      C2462   1.402       .  A
C2458      C2459   1.399       .  A
C2458      N2463   1.433       .  S
C2459      C2460   1.403       .  A
C2459      H2464   1.084       .  S
C2460      C2465   1.482       .  S
C2460      C2461   1.413       .  A
C2461      C2462   1.401       .  A
C2461      N2466   1.438       .  S
C2462      H2467   1.084       .  S
N2463      H2483   1.045       .  S
N2463      H2484   1.046       .  S
C2465      C2468   1.401       .  A
C2465      C2472   1.412       .  A
N2466      H2481   1.046       .  S
N2466      H2482   1.046       .  S
C2468      C2469   1.398       .  A
C2468      H2473   1.083       .  S
C2469      C2470   1.414       .  A
C2469      N2474   1.439       .  S
C2470      C2471   1.405       .  A
C2471      C2472   1.403       .  A
C2471      H2475   1.083       .  S
C2472      N2476   1.438       .  S
N2474      H2477   1.046       .  S
N2474      H2478   1.046       .  S
N2476      H2479   1.046       .  S
N2476      H2480   1.046       .  S
C2485      C2486   1.410       .  A
C2485      C2490   1.400       .  A
C2486      C2487   1.401       .  A
C2486      N2491   1.438       .  S
C2487      C2488   1.401       .  A
C2487      H2492   1.084       .  S
C2488      C2493   1.481       .  S
C2488      C2489   1.413       .  A
C2489      C2490   1.405       .  A
C2489      N2494   1.438       .  S
C2490      H2495   1.084       .  S
N2491      H2511   1.046       .  S
N2491      H2512   1.046       .  S
C2493      C2496   1.402       .  A
C2493      C2500   1.411       .  A
N2494      H2509   1.046       .  S
N2494      H2510   1.046       .  S
C2496      C2497   1.402       .  A
C2496      H2501   1.084       .  S
C2497      C2498   1.413       .  A
C2497      N2502   1.439       .  S
C2498      C2499   1.404       .  A
C2499      C2500   1.404       .  A
C2499      H2503   1.084       .  S
C2500      N2504   1.438       .  S
N2502      H2505   1.046       .  S
N2502      H2506   1.046       .  S
N2504      H2507   1.046       .  S
N2504      H2508   1.045       .  S
C2513      C2514   1.415       .  A
C2513      C2518   1.403       .  A
C2514      C2515   1.404       .  A
C2514      N2519   1.438       .  S
C2515      C2516   1.402       .  A
C2515      H2520   1.084       .  S
C2516      C2521   1.482       .  S
C2516      C2517   1.410       .  A
C2517      C2518   1.402       .  A
C2517      N2522   1.438       .  S
C2518      H2523   1.083       .  S
N2519      H2539   1.046       .  S
N2519      H2540   1.046       .  S
C2521      C2524   1.399       .  A
C2521      C2528   1.411       .  A
N2522      H2537   1.046       .  S
N2522      H2538   1.045       .  S
C2524      C2525   1.398       .  A
C2524      H2529   1.084       .  S
C2525      C2526   1.415       .  A
C2525      N2530   1.433       .  S
C2526      C2527   1.407       .  A
C2527      C2528   1.407       .  A
C2527      H2531   1.084       .  S
C2528      N2532   1.438       .  S
N2530      H2533   1.046       .  S
N2530      H2534   1.046       .  S
N2532      H2535   1.045       .  S
N2532      H2536   1.046       .  S
C2541      C2542   1.413       .  A
C2541      C2546   1.405       .  A
C2542      C2543   1.401       .  A
C2542      N2547   1.439       .  S
C2543      C2544   1.404       .  A
C2543      H2548   1.083       .  S
C2544      C2549   1.491       .  S
C2544      C2545   1.414       .  A
C2545      C2546   1.407       .  A
C2545      N2550   1.438       .  S
C2546      H2551   1.084       .  S
N2547      H2567   1.046       .  S
N2547      H2568   1.046       .  S
C2549      C2552   1.402       .  A
C2549      C2556   1.411       .  A
N2550      H2565   1.046       .  S
N2550      H2566   1.045       .  S
C2552      C2553   1.406       .  A
C2552      H2557   1.083       .  S
C2553      C2554   1.421       .  A
C2553      N2558   1.438       .  S
C2554      C2555   1.407       .  A
C2555      C2556   1.404       .  A
C2555      H2559   1.083       .  S
C2556      N2560   1.438       .  S
N2558      H2561   1.046       .  S
N2558      H2562   1.046       .  S
N2560      H2563   1.046       .  S
N2560      H2564   1.045       .  S
C2569      C2570   1.412       .  A
C2569      C2574   1.403       .  A
C2570      C2571   1.403       .  A
C2570      N2575   1.438       .  S
C2571      C2572   1.401       .  A
C2571      H2576   1.084       .  S
C2572      C2577   1.469       .  S
C2572      C2573   1.407       .  A
C2573      C2574   1.397       .  A
C2573      N2578   1.439   1_455  S
C2574      H2579   1.084   1_455  S
N2575      H2595   1.046       .  S
N2575      H2596   1.046       .  S
C2577      C2580   1.400       .  A
C2577      C2584   1.407   1_565  A
N2578      H2593   1.046       .  S
N2578      H2594   1.046   1_655  S
C2580      C2581   1.401   1_565  A
C2580      H2585   1.084   1_455  S
C2581      C2582   1.411       .  A
C2581      N2586   1.438   1_455  S
C2582      C2583   1.405       .  A
C2583      C2584   1.399       .  A
C2583      H2587   1.084       .  S
C2584      N2588   1.439   1_545  S
N2586      H2589   1.046       .  S
N2586      H2590   1.046       .  S
N2588      H2591   1.046       .  S
N2588      H2592   1.046       .  S
C2597      C2598   1.415       .  A
C2597      C2602   1.412       .  A
C2598      C2599   1.401       .  A
C2598      N2603   1.432   1_655  S
C2599      C2600   1.399       .  A
C2599      H2604   1.084       .  S
C2600      C2605   1.474       .  S
C2600      C2601   1.405       .  A
C2601      C2602   1.404       .  A
C2601      N2606   1.438       .  S
C2602      H2607   1.083       .  S
N2603      H2623   1.046       .  S
N2603      H2624   1.045       .  S
C2605      C2608   1.401       .  A
C2605      C2612   1.404       .  A
N2606      H2621   1.046       .  S
N2606      H2622   1.046       .  S
C2608      C2609   1.408       .  A
C2608      H2613   1.084       .  S
C2609      C2610   1.417       .  A
C2609      N2614   1.438       .  S
C2610      C2611   1.407       .  A
C2611      C2612   1.400       .  A
C2611      H2615   1.084       .  S
C2612      N2616   1.438       .  S
N2614      H2617   1.046       .  S
N2614      H2618   1.045       .  S
N2616      H2619   1.046       .  S
N2616      H2620   1.046       .  S
C2625      C2626   1.414       .  A
C2625      C2630   1.405       .  A
C2626      C2627   1.403       .  A
C2626      N2631   1.437       .  S
C2627      C2628   1.402       .  A
C2627      H2632   1.084       .  S
C2628      C2633   1.480       .  S
C2628      C2629   1.410       .  A
C2629      C2630   1.403       .  A
C2629      N2634   1.438       .  S
C2630      H2635   1.084       .  S
N2631      H2651   1.045       .  S
N2631      H2652   1.046       .  S
C2633      C2636   1.401       .  A
C2633      C2640   1.412       .  A
N2634      H2649   1.046       .  S
N2634      H2650   1.045       .  S
C2636      C2637   1.400       .  A
C2636      H2641   1.084       .  S
C2637      C2638   1.410       .  A
C2637      N2642   1.439       .  S
C2638      C2639   1.402       .  A
C2639      C2640   1.405       .  A
C2639      H2643   1.084       .  S
C2640      N2644   1.438       .  S
N2642      H2645   1.046       .  S
N2642      H2646   1.046       .  S
N2644      H2647   1.046       .  S
N2644      H2648   1.046       .  S
C2653      C2654   1.413       .  A
C2653      C2658   1.407       .  A
C2654      C2655   1.402       .  A
C2654      N2659   1.438       .  S
C2655      C2656   1.400       .  A
C2655      H2660   1.084       .  S
C2656      C2661   1.479       .  S
C2656      C2657   1.409       .  A
C2657      C2658   1.405       .  A
C2657      N2662   1.438   1_455  S
C2658      H2663   1.084   1_455  S
N2659      H2679   1.046       .  S
N2659      H2680   1.046       .  S
C2661      C2664   1.401       .  A
C2661      C2668   1.410       .  A
N2662      H2677   1.046       .  S
N2662      H2678   1.045       .  S
C2664      C2665   1.404       .  A
C2664      H2669   1.084   1_455  S
C2665      C2666   1.415       .  A
C2665      N2670   1.438   1_455  S
C2666      C2667   1.403       .  A
C2667      C2668   1.403       .  A
C2667      H2671   1.084       .  S
C2668      N2672   1.438       .  S
N2670      H2673   1.046       .  S
N2670      H2674   1.046       .  S
N2672      H2675   1.046       .  S
N2672      H2676   1.046       .  S
C2681      C2682   1.417       .  A
C2681      C2686   1.405       .  A
C2682      C2683   1.405       .  A
C2682      N2687   1.439       .  S
C2683      C2684   1.402       .  A
C2683      H2688   1.084       .  S
C2684      C2689   1.488       .  S
C2684      C2685   1.411       .  A
C2685      C2686   1.408       .  A
C2685      N2690   1.437       .  S
C2686      H2691   1.084       .  S
N2687      H2707   1.046       .  S
N2687      H2708   1.046       .  S
C2689      C2692   1.399       .  A
C2689      C2696   1.410       .  A
N2690      H2705   1.046       .  S
N2690      H2706   1.046       .  S
C2692      C2693   1.406       .  A
C2692      H2697   1.084       .  S
C2693      C2694   1.422       .  A
C2693      N2698   1.438       .  S
C2694      C2695   1.407       .  A
C2695      C2696   1.410       .  A
C2695      H2699   1.083       .  S
C2696      N2700   1.437       .  S
N2698      H2701   1.046       .  S
N2698      H2702   1.045       .  S
N2700      H2703   1.045       .  S
N2700      H2704   1.046       .  S
C2709      C2710   1.410       .  A
C2709      C2714   1.402       .  A
C2710      C2711   1.406       .  A
C2710      N2715   1.439       .  S
C2711      C2712   1.402       .  A
C2711      H2716   1.084       .  S
C2712      C2717   1.482       .  S
C2712      C2713   1.410       .  A
C2713      C2714   1.408       .  A
C2713      N2718   1.437       .  S
C2714      H2719   1.084       .  S
N2715      H2735   1.046       .  S
N2715      H2736   1.046       .  S
C2717      C2720   1.401       .  A
C2717      C2724   1.406       .  A
N2718      H2733   1.046       .  S
N2718      H2734   1.045       .  S
C2720      C2721   1.409       .  A
C2720      H2725   1.084       .  S
C2721      C2722   1.415       .  A
C2721      N2726   1.437   1_655  S
C2722      C2723   1.411       .  A
C2723      C2724   1.405       .  A
C2723      H2727   1.083       .  S
C2724      N2728   1.438       .  S
N2726      H2729   1.046       .  S
N2726      H2730   1.046       .  S
N2728      H2731   1.046       .  S
N2728      H2732   1.046       .  S
C2737      C2738   1.412       .  A
C2737      C2742   1.406       .  A
C2738      C2739   1.399       .  A
C2738      N2743   1.433       .  S
C2739      C2740   1.398       .  A
C2739      H2744   1.084       .  S
C2740      C2745   1.469       .  S
C2740      C2741   1.407       .  A
C2741      C2742   1.401       .  A
C2741      N2746   1.438       .  S
C2742      H2747   1.084       .  S
N2743      H2763   1.046       .  S
N2743      H2764   1.046       .  S
C2745      C2748   1.401       .  A
C2745      C2752   1.407       .  A
N2746      H2761   1.046       .  S
N2746      H2762   1.046       .  S
C2748      C2749   1.403       .  A
C2748      H2753   1.084       .  S
C2749      C2750   1.411       .  A
C2749      N2754   1.438       .  S
C2750      C2751   1.402       .  A
C2751      C2752   1.399       .  A
C2751      H2755   1.084       .  S
C2752      N2756   1.438       .  S
N2754      H2757   1.046       .  S
N2754      H2758   1.046       .  S
N2756      H2759   1.046       .  S
N2756      H2760   1.046       .  S
C2765      C2766   1.416       .  A
C2765      C2770   1.403       .  A
C2766      C2767   1.402       .  A
C2766      N2771   1.439       .  S
C2767      C2768   1.400       .  A
C2767      H2772   1.084       .  S
C2768      C2773   1.478       .  S
C2768      C2769   1.411       .  A
C2769      C2770   1.403       .  A
C2769      N2774   1.438       .  S
C2770      H2775   1.083       .  S
N2771      H2791   1.046       .  S
N2771      H2792   1.046       .  S
C2773      C2776   1.399       .  A
C2773      C2780   1.411       .  A
N2774      H2789   1.046       .  S
N2774      H2790   1.046       .  S
C2776      C2777   1.401       .  A
C2776      H2781   1.084       .  S
C2777      C2778   1.415       .  A
C2777      N2782   1.438   1_655  S
C2778      C2779   1.403       .  A
C2779      C2780   1.404       .  A
C2779      H2783   1.084       .  S
C2780      N2784   1.438       .  S
N2782      H2785   1.046       .  S
N2782      H2786   1.046       .  S
N2784      H2787   1.046       .  S
N2784      H2788   1.046       .  S
C2793      C2794   1.415       .  A
C2793      C2798   1.407       .  A
C2794      C2795   1.404       .  A
C2794      N2799   1.433       .  S
C2795      C2796   1.402       .  A
C2795      H2800   1.084       .  S
C2796      C2801   1.485       .  S
C2796      C2797   1.409       .  A
C2797      C2798   1.407       .  A
C2797      N2802   1.437   1_455  S
C2798      H2803   1.083   1_455  S
N2799      H2819   1.046       .  S
N2799      H2820   1.046       .  S
C2801      C2804   1.400       .  A
C2801      C2808   1.410       .  A
N2802      H2817   1.046       .  S
N2802      H2818   1.045       .  S
C2804      C2805   1.401       .  A
C2804      H2809   1.084   1_455  S
C2805      C2806   1.414       .  A
C2805      N2810   1.433   1_455  S
C2806      C2807   1.407       .  A
C2807      C2808   1.409       .  A
C2807      H2811   1.084       .  S
C2808      N2812   1.437       .  S
N2810      H2813   1.046       .  S
N2810      H2814   1.046       .  S
N2812      H2815   1.046       .  S
N2812      H2816   1.046       .  S
C2821      C2822   1.413       .  A
C2821      C2826   1.406       .  A
C2822      C2823   1.404       .  A
C2822      N2827   1.432       .  S
C2823      C2824   1.402       .  A
C2823      H2828   1.084       .  S
C2824      C2829   1.477       .  S
C2824      C2825   1.407       .  A
C2825      C2826   1.403       .  A
C2825      N2830   1.438       .  S
C2826      H2831   1.083       .  S
N2827      H2847   1.046       .  S
N2827      H2848   1.046       .  S
C2829      C2832   1.402       .  A
C2829      C2836   1.408       .  A
N2830      H2845   1.045       .  S
N2830      H2846   1.046       .  S
C2832      C2833   1.402       .  A
C2832      H2837   1.084       .  S
C2833      C2834   1.412       .  A
C2833      N2838   1.433       .  S
C2834      C2835   1.404       .  A
C2835      C2836   1.403       .  A
C2835      H2839   1.084       .  S
C2836      N2840   1.437       .  S
N2838      H2841   1.046       .  S
N2838      H2842   1.046       .  S
N2840      H2843   1.046       .  S
N2840      H2844   1.046       .  S
C2849      C2850   1.412       .  A
C2849      C2854   1.404       .  A
C2850      C2851   1.407       .  A
C2850      N2855   1.432       .  S
C2851      C2852   1.402       .  A
C2851      H2856   1.084       .  S
C2852      C2857   1.483       .  S
C2852      C2853   1.410       .  A
C2853      C2854   1.407       .  A
C2853      N2858   1.438       .  S
C2854      H2859   1.084       .  S
N2855      H2875   1.046       .  S
N2855      H2876   1.046       .  S
C2857      C2860   1.401       .  A
C2857      C2864   1.410       .  A
N2858      H2873   1.046       .  S
N2858      H2874   1.045       .  S
C2860      C2861   1.403       .  A
C2860      H2865   1.084       .  S
C2861      C2862   1.410       .  A
C2861      N2866   1.432       .  S
C2862      C2863   1.407       .  A
C2863      C2864   1.410       .  A
C2863      H2867   1.084       .  S
C2864      N2868   1.437       .  S
N2866      H2869   1.046   1_655  S
N2866      H2870   1.045       .  S
N2868      H2871   1.046       .  S
N2868      H2872   1.045       .  S
C2877      C2878   1.412       .  A
C2877      C2882   1.403       .  A
C2878      C2879   1.402       .  A
C2878      N2883   1.438       .  S
C2879      C2880   1.399   1_545  A
C2879      H2884   1.084   1_545  S
C2880      C2885   1.470       .  S
C2880      C2881   1.407   1_565  A
C2881      C2882   1.402       .  A
C2881      N2886   1.438   1_545  S
C2882      H2887   1.084       .  S
N2883      H2903   1.045       .  S
N2883      H2904   1.046   1_455  S
C2885      C2888   1.399       .  A
C2885      C2892   1.407       .  A
N2886      H2901   1.046   1_565  S
N2886      H2902   1.046       .  S
C2888      C2889   1.403       .  A
C2888      H2893   1.084       .  S
C2889      C2890   1.414       .  A
C2889      N2894   1.438       .  S
C2890      C2891   1.403       .  A
C2891      C2892   1.400       .  A
C2891      H2895   1.084   1_455  S
C2892      N2896   1.438   1_455  S
N2894      H2897   1.046       .  S
N2894      H2898   1.046       .  S
N2896      H2899   1.046       .  S
N2896      H2900   1.046   1_655  S
C2905      C2906   1.414       .  A
C2905      C2910   1.402       .  A
C2906      C2907   1.399       .  A
C2906      N2911   1.439       .  S
C2907      C2908   1.397       .  A
C2907      H2912   1.084       .  S
C2908      C2913   1.467       .  S
C2908      C2909   1.407       .  A
C2909      C2910   1.402       .  A
C2909      N2914   1.438       .  S
C2910      H2915   1.084       .  S
N2911      H2931   1.046       .  S
N2911      H2932   1.046       .  S
C2913      C2916   1.399       .  A
C2913      C2920   1.405       .  A
N2914      H2929   1.046       .  S
N2914      H2930   1.046       .  S
C2916      C2917   1.393       .  A
C2916      H2921   1.084       .  S
C2917      C2918   1.414       .  A
C2917      N2922   1.432       .  S
C2918      C2919   1.407       .  A
C2919      C2920   1.401       .  A
C2919      H2923   1.084       .  S
C2920      N2924   1.438       .  S
N2922      H2925   1.044       .  S
N2922      H2926   1.045       .  S
N2924      H2927   1.046       .  S
N2924      H2928   1.046       .  S
C2933      C2934   1.414       .  A
C2933      C2938   1.404       .  A
C2934      C2935   1.402       .  A
C2934      N2939   1.438       .  S
C2935      C2936   1.400       .  A
C2935      H2940   1.084       .  S
C2936      C2941   1.467       .  S
C2936      C2937   1.406       .  A
C2937      C2938   1.397       .  A
C2937      N2942   1.439       .  S
C2938      H2943   1.084       .  S
N2939      H2959   1.046       .  S
N2939      H2960   1.046       .  S
C2941      C2944   1.396       .  A
C2941      C2948   1.406       .  A
N2942      H2957   1.046       .  S
N2942      H2958   1.046       .  S
C2944      C2945   1.398       .  A
C2944      H2949   1.084       .  S
C2945      C2946   1.419       .  A
C2945      N2950   1.438       .  S
C2946      C2947   1.407       .  A
C2947      C2948   1.401       .  A
C2947      H2951   1.083       .  S
C2948      N2952   1.438       .  S
N2950      H2953   1.046       .  S
N2950      H2954   1.046       .  S
N2952      H2955   1.046       .  S
N2952      H2956   1.046       .  S
C2961      C2962   1.414       .  A
C2961      C2966   1.405       .  A
C2962      C2963   1.412       .  A
C2962      N2967   1.437       .  S
C2963      C2964   1.405       .  A
C2963      H2968   1.084       .  S
C2964      C2969   1.491       .  S
C2964      C2965   1.409       .  A
C2965      C2966   1.407       .  A
C2965      N2970   1.437       .  S
C2966      H2971   1.084       .  S
N2967      H2987   1.045   1_545  S
N2967      H2988   1.046       .  S
C2969      C2972   1.403       .  A
C2969      C2976   1.409       .  A
N2970      H2985   1.046       .  S
N2970      H2986   1.046       .  S
C2972      C2973   1.408       .  A
C2972      H2977   1.084       .  S
C2973      C2974   1.415       .  A
C2973      N2978   1.432       .  S
C2974      C2975   1.412       .  A
C2975      C2976   1.411       .  A
C2975      H2979   1.083       .  S
C2976      N2980   1.438       .  S
N2978      H2981   1.046       .  S
N2978      H2982   1.045       .  S
N2980      H2983   1.045       .  S
N2980      H2984   1.046       .  S
C2989      C2990   1.417       .  A
C2989      C2994   1.405       .  A
C2990      C2991   1.405       .  A
C2990      N2995   1.439       .  S
C2991      C2992   1.401       .  A
C2991      H2996   1.084       .  S
C2992      C2997   1.485       .  S
C2992      C2993   1.411       .  A
C2993      C2994   1.406       .  A
C2993      N2998   1.438       .  S
C2994      H2999   1.084       .  S
N2995      H3015   1.046       .  S
N2995      H3016   1.046       .  S
C2997      C3000   1.400       .  A
C2997      C3004   1.410       .  A
N2998      H3013   1.046       .  S
N2998      H3014   1.046       .  S
C3000      C3001   1.406       .  A
C3000      H3005   1.084       .  S
C3001      C3002   1.419       .  A
C3001      N3006   1.438       .  S
C3002      C3003   1.405       .  A
C3003      C3004   1.407       .  A
C3003      H3007   1.083       .  S
C3004      N3008   1.438       .  S
N3006      H3009   1.046       .  S
N3006      H3010   1.045       .  S
N3008      H3011   1.045       .  S
N3008      H3012   1.046       .  S
C3017      C3018   1.409       .  A
C3017      C3022   1.410       .  A
C3018      C3019   1.398       .  A
C3018      N3023   1.432       .  S
C3019      C3020   1.400       .  A
C3019      H3024   1.084       .  S
C3020      C3025   1.467       .  S
C3020      C3021   1.404       .  A
C3021      C3022   1.400       .  A
C3021      N3026   1.438       .  S
C3022      H3027   1.083       .  S
N3023      H3043   1.046       .  S
N3023      H3044   1.046       .  S
C3025      C3028   1.403       .  A
C3025      C3032   1.405       .  A
N3026      H3041   1.046       .  S
N3026      H3042   1.046       .  S
C3028      C3029   1.403       .  A
C3028      H3033   1.084       .  S
C3029      C3030   1.411       .  A
C3029      N3034   1.439       .  S
C3030      C3031   1.401       .  A
C3031      C3032   1.394       .  A
C3031      H3035   1.084       .  S
C3032      N3036   1.438       .  S
N3034      H3037   1.046       .  S
N3034      H3038   1.045       .  S
N3036      H3039   1.046       .  S
N3036      H3040   1.046       .  S
C3045      C3046   1.413       .  A
C3045      C3050   1.403       .  A
C3046      C3047   1.401       .  A
C3046      N3051   1.439       .  S
C3047      C3048   1.402       .  A
C3047      H3052   1.084       .  S
C3048      C3053   1.481       .  S
C3048      C3049   1.412       .  A
C3049      C3050   1.403       .  A
C3049      N3054   1.438       .  S
C3050      H3055   1.084       .  S
N3051      H3071   1.046       .  S
N3051      H3072   1.046       .  S
C3053      C3056   1.402       .  A
C3053      C3060   1.413       .  A
N3054      H3069   1.045       .  S
N3054      H3070   1.045       .  S
C3056      C3057   1.400       .  A
C3056      H3061   1.084       .  S
C3057      C3058   1.408       .  A
C3057      N3062   1.432       .  S
C3058      C3059   1.401       .  A
C3059      C3060   1.404       .  A
C3059      H3063   1.084       .  S
C3060      N3064   1.438       .  S
N3062      H3065   1.046       .  S
N3062      H3066   1.046       .  S
N3064      H3067   1.046       .  S
N3064      H3068   1.046       .  S
C3073      C3074   1.413       .  A
C3073      C3078   1.406       .  A
C3074      C3075   1.408       .  A
C3074      N3079   1.438   1_545  S
C3075      C3076   1.405       .  A
C3075      H3080   1.084       .  S
C3076      C3081   1.487       .  S
C3076      C3077   1.409       .  A
C3077      C3078   1.405       .  A
C3077      N3082   1.438       .  S
C3078      H3083   1.084       .  S
N3079      H3099   1.046       .  S
N3079      H3100   1.045   1_565  S
C3081      C3084   1.406       .  A
C3081      C3088   1.408       .  A
N3082      H3097   1.045       .  S
N3082      H3098   1.046       .  S
C3084      C3085   1.411       .  A
C3084      H3089   1.084       .  S
C3085      C3086   1.414       .  A
C3085      N3090   1.437       .  S
C3086      C3087   1.408       .  A
C3087      C3088   1.401       .  A
C3087      H3091   1.084       .  S
C3088      N3092   1.439       .  S
N3090      H3093   1.046       .  S
N3090      H3094   1.045       .  S
N3092      H3095   1.046       .  S
N3092      H3096   1.046       .  S
C3101      C3102   1.415       .  A
C3101      C3106   1.408       .  A
C3102      C3103   1.402       .  A
C3102      N3107   1.432       .  S
C3103      C3104   1.399       .  A
C3103      H3108   1.084       .  S
C3104      C3109   1.488       .  S
C3104      C3105   1.412       .  A
C3105      C3106   1.411       .  A
C3105      N3110   1.438       .  S
C3106      H3111   1.083       .  S
N3107      H3127   1.046       .  S
N3107      H3128   1.046       .  S
C3109      C3112   1.403       .  A
C3109      C3116   1.411       .  A
N3110      H3125   1.046       .  S
N3110      H3126   1.046       .  S
C3112      C3113   1.409       .  A
C3112      H3117   1.084       .  S
C3113      C3114   1.416       .  A
C3113      N3118   1.438       .  S
C3114      C3115   1.404       .  A
C3115      C3116   1.405       .  A
C3115      H3119   1.084       .  S
C3116      N3120   1.438       .  S
N3118      H3121   1.046       .  S
N3118      H3122   1.046       .  S
N3120      H3123   1.046       .  S
N3120      H3124   1.045       .  S
C3129      C3130   1.411       .  A
C3129      C3134   1.405       .  A
C3130      C3131   1.400       .  A
C3130      N3135   1.433       .  S
C3131      C3132   1.402       .  A
C3131      H3136   1.084       .  S
C3132      C3137   1.480       .  S
C3132      C3133   1.410       .  A
C3133      C3134   1.402       .  A
C3133      N3138   1.438       .  S
C3134      H3139   1.083   1_545  S
N3135      H3155   1.046       .  S
N3135      H3156   1.046       .  S
C3137      C3140   1.398       .  A
C3137      C3144   1.409       .  A
N3138      H3153   1.046       .  S
N3138      H3154   1.045       .  S
C3140      C3141   1.400       .  A
C3140      H3145   1.084       .  S
C3141      C3142   1.417       .  A
C3141      N3146   1.432       .  S
C3142      C3143   1.412       .  A
C3143      C3144   1.407       .  A
C3143      H3147   1.083       .  S
C3144      N3148   1.439       .  S
N3146      H3149   1.046       .  S
N3146      H3150   1.046       .  S
N3148      H3151   1.045       .  S
N3148      H3152   1.046       .  S
C3157      C3158   1.410       .  A
C3157      C3162   1.402       .  A
C3158      C3159   1.400       .  A
C3158      N3163   1.438       .  S
C3159      C3160   1.403       .  A
C3159      H3164   1.084       .  S
C3160      C3165   1.477       .  S
C3160      C3161   1.411       .  A
C3161      C3162   1.400       .  A
C3161      N3166   1.439       .  S
C3162      H3167   1.084       .  S
N3163      H3183   1.046       .  S
N3163      H3184   1.046       .  S
C3165      C3168   1.404       .  A
C3165      C3172   1.412       .  A
N3166      H3181   1.046       .  S
N3166      H3182   1.045       .  S
C3168      C3169   1.399       .  A
C3168      H3173   1.083       .  S
C3169      C3170   1.407       .  A
C3169      N3174   1.438       .  S
C3170      C3171   1.401       .  A
C3171      C3172   1.398       .  A
C3171      H3175   1.085       .  S
C3172      N3176   1.439       .  S
N3174      H3177   1.046       .  S
N3174      H3178   1.046       .  S
N3176      H3179   1.046       .  S
N3176      H3180   1.045       .  S
C3185      C3186   1.413       .  A
C3185      C3190   1.406       .  A
C3186      C3187   1.403       .  A
C3186      N3191   1.438       .  S
C3187      C3188   1.402       .  A
C3187      H3192   1.084       .  S
C3188      C3193   1.483       .  S
C3188      C3189   1.411       .  A
C3189      C3190   1.404       .  A
C3189      N3194   1.438       .  S
C3190      H3195   1.084       .  S
N3191      H3211   1.046       .  S
N3191      H3212   1.046       .  S
C3193      C3196   1.403       .  A
C3193      C3200   1.411       .  A
N3194      H3209   1.046       .  S
N3194      H3210   1.046       .  S
C3196      C3197   1.404       .  A
C3196      H3201   1.084       .  S
C3197      C3198   1.411       .  A
C3197      N3202   1.438       .  S
C3198      C3199   1.405       .  A
C3199      C3200   1.403       .  A
C3199      H3203   1.084       .  S
C3200      N3204   1.438       .  S
N3202      H3205   1.045       .  S
N3202      H3206   1.046       .  S
N3204      H3207   1.046       .  S
N3204      H3208   1.045       .  S
C3213      C3214   1.412       .  A
C3213      C3218   1.405       .  A
C3214      C3215   1.406       .  A
C3214      N3219   1.438       .  S
C3215      C3216   1.401       .  A
C3215      H3220   1.084       .  S
C3216      C3221   1.477       .  S
C3216      C3217   1.407       .  A
C3217      C3218   1.405       .  A
C3217      N3222   1.438       .  S
C3218      H3223   1.084       .  S
N3219      H3239   1.046       .  S
N3219      H3240   1.046       .  S
C3221      C3224   1.401       .  A
C3221      C3228   1.406       .  A
N3222      H3237   1.046       .  S
N3222      H3238   1.046       .  S
C3224      C3225   1.406       .  A
C3224      H3229   1.084       .  S
C3225      C3226   1.414       .  A
C3225      N3230   1.438       .  S
C3226      C3227   1.407       .  A
C3227      C3228   1.404       .  A
C3227      H3231   1.084       .  S
C3228      N3232   1.438       .  S
N3230      H3233   1.046       .  S
N3230      H3234   1.046       .  S
N3232      H3235   1.046       .  S
N3232      H3236   1.046       .  S
C3241      C3242   1.412       .  A
C3241      C3246   1.402       .  A
C3242      C3243   1.399       .  A
C3242      N3247   1.438       .  S
C3243      C3244   1.399       .  A
C3243      H3248   1.084       .  S
C3244      C3249   1.471       .  S
C3244      C3245   1.408       .  A
C3245      C3246   1.404       .  A
C3245      N3250   1.437       .  S
C3246      H3251   1.084       .  S
N3247      H3267   1.046       .  S
N3247      H3268   1.046       .  S
C3249      C3252   1.401       .  A
C3249      C3256   1.403       .  A
N3250      H3265   1.046       .  S
N3250      H3266   1.046       .  S
C3252      C3253   1.407       .  A
C3252      H3257   1.084       .  S
C3253      C3254   1.417       .  A
C3253      N3258   1.438       .  S
C3254      C3255   1.410       .  A
C3255      C3256   1.397       .  A
C3255      H3259   1.083       .  S
C3256      N3260   1.439       .  S
N3258      H3261   1.046       .  S
N3258      H3262   1.046       .  S
N3260      H3263   1.046       .  S
N3260      H3264   1.046       .  S
C3269      C3270   1.411       .  A
C3269      C3274   1.402       .  A
C3270      C3271   1.403       .  A
C3270      N3275   1.438       .  S
C3271      C3272   1.405       .  A
C3271      H3276   1.083       .  S
C3272      C3277   1.490       .  S
C3272      C3273   1.414       .  A
C3273      C3274   1.405       .  A
C3273      N3278   1.438       .  S
C3274      H3279   1.084       .  S
N3275      H3295   1.045       .  S
N3275      H3296   1.046       .  S
C3277      C3280   1.405       .  A
C3277      C3284   1.414       .  A
N3278      H3293   1.046       .  S
N3278      H3294   1.045       .  S
C3280      C3281   1.404       .  A
C3280      H3285   1.083       .  S
C3281      C3282   1.411       .  A
C3281      N3286   1.438       .  S
C3282      C3283   1.404       .  A
C3283      C3284   1.406       .  A
C3283      H3287   1.084       .  S
C3284      N3288   1.438       .  S
N3286      H3289   1.046       .  S
N3286      H3290   1.046       .  S
N3288      H3291   1.046       .  S
N3288      H3292   1.046       .  S
C3297      C3298   1.414       .  A
C3297      C3302   1.406       .  A
C3298      C3299   1.403       .  A
C3298      N3303   1.438       .  S
C3299      C3300   1.399       .  A
C3299      H3304   1.084       .  S
C3300      C3305   1.480       .  S
C3300      C3301   1.410       .  A
C3301      C3302   1.411       .  A
C3301      N3306   1.437       .  S
C3302      H3307   1.084       .  S
N3303      H3323   1.045       .  S
N3303      H3324   1.046       .  S
C3305      C3308   1.401       .  A
C3305      C3312   1.409       .  A
N3306      H3321   1.046       .  S
N3306      H3322   1.045       .  S
C3308      C3309   1.409       .  A
C3308      H3313   1.084       .  S
C3309      C3310   1.411       .  A
C3309      N3314   1.434       .  S
C3310      C3311   1.406       .  A
C3311      C3312   1.406       .  A
C3311      H3315   1.084       .  S
C3312      N3316   1.438       .  S
N3314      H3317   1.045       .  S
N3314      H3318   1.046       .  S
N3316      H3319   1.046       .  S
N3316      H3320   1.045       .  S
C3325      C3326   1.417       .  A
C3325      C3330   1.407       .  A
C3326      C3327   1.406       .  A
C3326      N3331   1.438       .  S
C3327      C3328   1.403       .  A
C3327      H3332   1.084       .  S
C3328      C3333   1.489       .  S
C3328      C3329   1.410       .  A
C3329      C3330   1.405       .  A
C3329      N3334   1.438       .  S
C3330      H3335   1.083       .  S
N3331      H3351   1.045       .  S
N3331      H3352   1.046       .  S
C3333      C3336   1.406       .  A
C3333      C3340   1.412       .  A
N3334      H3349   1.046       .  S
N3334      H3350   1.046       .  S
C3336      C3337   1.407       .  A
C3336      H3341   1.084       .  S
C3337      C3338   1.411       .  A
C3337      N3342   1.432       .  S
C3338      C3339   1.406       .  A
C3339      C3340   1.403       .  A
C3339      H3343   1.084       .  S
C3340      N3344   1.439       .  S
N3342      H3345   1.045       .  S
N3342      H3346   1.046       .  S
N3344      H3347   1.046       .  S
N3344      H3348   1.045       .  S
C3353      C3354   1.418       .  A
C3353      C3358   1.410       .  A
C3354      C3355   1.402       .  A
C3354      N3359   1.432       .  S
C3355      C3356   1.398       .  A
C3355      H3360   1.084       .  S
C3356      C3361   1.478       .  S
C3356      C3357   1.406       .  A
C3357      C3358   1.407       .  A
C3357      N3362   1.437       .  S
C3358      H3363   1.083       .  S
N3359      H3379   1.046       .  S
N3359      H3380   1.046       .  S
C3361      C3364   1.397       .  A
C3361      C3368   1.409       .  A
N3362      H3377   1.046       .  S
N3362      H3378   1.046       .  S
C3364      C3365   1.402       .  A
C3364      H3369   1.084       .  S
C3365      C3366   1.417       .  A
C3365      N3370   1.438       .  S
C3366      C3367   1.407       .  A
C3367      C3368   1.409       .  A
C3367      H3371   1.084       .  S
C3368      N3372   1.437       .  S
N3370      H3373   1.046       .  S
N3370      H3374   1.046       .  S
N3372      H3375   1.046       .  S
N3372      H3376   1.046       .  S
C3381      C3382   1.413       .  A
C3381      C3386   1.404       .  A
C3382      C3383   1.411       .  A
C3382      N3387   1.438       .  S
C3383      C3384   1.407       .  A
C3383      H3388   1.083       .  S
C3384      C3389   1.497       .  S
C3384      C3385   1.413       .  A
C3385      C3386   1.407       .  A
C3385      N3390   1.438       .  S
C3386      H3391   1.084       .  S
N3387      H3407   1.046       .  S
N3387      H3408   1.046       .  S
C3389      C3392   1.407       .  A
C3389      C3396   1.413       .  A
N3390      H3405   1.046       .  S
N3390      H3406   1.046       .  S
C3392      C3393   1.410       .  A
C3392      H3397   1.084       .  S
C3393      C3394   1.411       .  A
C3393      N3398   1.438       .  S
C3394      C3395   1.406       .  A
C3395      C3396   1.411       .  A
C3395      H3399   1.084       .  S
C3396      N3400   1.438       .  S
N3398      H3401   1.046       .  S
N3398      H3402   1.046       .  S
N3400      H3403   1.045       .  S
N3400      H3404   1.046       .  S
C3409      C3410   1.417       .  A
C3409      C3414   1.407       .  A
C3410      C3411   1.406       .  A
C3410      N3415   1.438   1_565  S
C3411      C3412   1.404       .  A
C3411      H3416   1.084   1_565  S
C3412      C3417   1.491       .  S
C3412      C3413   1.411       .  A
C3413      C3414   1.406       .  A
C3413      N3418   1.438       .  S
C3414      H3419   1.083       .  S
N3415      H3435   1.045       .  S
N3415      H3436   1.046       .  S
C3417      C3420   1.404       .  A
C3417      C3424   1.410       .  A
N3418      H3433   1.046       .  S
N3418      H3434   1.045       .  S
C3420      C3421   1.407       .  A
C3420      H3425   1.083       .  S
C3421      C3422   1.418       .  A
C3421      N3426   1.438       .  S
C3422      C3423   1.407       .  A
C3423      C3424   1.404       .  A
C3423      H3427   1.083   1_565  S
C3424      N3428   1.438   1_565  S
N3426      H3429   1.046       .  S
N3426      H3430   1.045       .  S
N3428      H3431   1.046       .  S
N3428      H3432   1.046       .  S
C3437      C3438   1.418       .  A
C3437      C3442   1.408       .  A
C3438      C3439   1.409       .  A
C3438      N3443   1.438       .  S
C3439      C3440   1.403       .  A
C3439      H3444   1.084       .  S
C3440      C3445   1.483       .  S
C3440      C3441   1.407       .  A
C3441      C3442   1.401       .  A
C3441      N3446   1.438       .  S
C3442      H3447   1.082       .  S
N3443      H3463   1.046   1_545  S
N3443      H3464   1.046       .  S
C3445      C3448   1.402       .  A
C3445      C3452   1.410       .  A
N3446      H3461   1.046       .  S
N3446      H3462   1.045       .  S
C3448      C3449   1.402       .  A
C3448      H3453   1.084       .  S
C3449      C3450   1.414       .  A
C3449      N3454   1.439       .  S
C3450      C3451   1.406       .  A
C3451      C3452   1.407       .  A
C3451      H3455   1.084       .  S
C3452      N3456   1.437       .  S
N3454      H3457   1.046       .  S
N3454      H3458   1.045       .  S
N3456      H3459   1.046       .  S
N3456      H3460   1.046       .  S
C3465      C3466   1.416       .  A
C3465      C3470   1.408       .  A
C3466      C3467   1.401       .  A
C3466      N3471   1.432       .  S
C3467      C3468   1.400       .  A
C3467      H3472   1.084       .  S
C3468      C3473   1.489       .  S
C3468      C3469   1.413       .  A
C3469      C3470   1.410       .  A
C3469      N3474   1.438       .  S
C3470      H3475   1.083       .  S
N3471      H3491   1.046       .  S
N3471      H3492   1.046       .  S
C3473      C3476   1.402       .  A
C3473      C3480   1.414       .  A
N3474      H3489   1.046       .  S
N3474      H3490   1.046       .  S
C3476      C3477   1.401       .  A
C3476      H3481   1.084       .  S
C3477      C3478   1.413       .  A
C3477      N3482   1.433       .  S
C3478      C3479   1.404       .  A
C3479      C3480   1.410       .  A
C3479      H3483   1.083       .  S
C3480      N3484   1.437       .  S
N3482      H3485   1.046       .  S
N3482      H3486   1.046       .  S
N3484      H3487   1.046       .  S
N3484      H3488   1.046       .  S
C3493      C3494   1.416       .  A
C3493      C3498   1.404       .  A
C3494      C3495   1.399       .  A
C3494      N3499   1.438       .  S
C3495      C3496   1.395       .  A
C3495      H3500   1.084       .  S
C3496      C3501   1.464   1_556  S
C3496      C3497   1.407       .  A
C3497      C3498   1.402       .  A
C3497      N3502   1.438   1_565  S
C3498      H3503   1.083   1_565  S
N3499      H3519   1.045       .  S
N3499      H3520   1.046       .  S
C3501      C3504   1.401       .  A
C3501      C3508   1.404       .  A
N3502      H3517   1.046       .  S
N3502      H3518   1.046   1_556  S
C3504      C3505   1.401       .  A
C3504      H3509   1.084       .  S
C3505      C3506   1.409       .  A
C3505      N3510   1.438       .  S
C3506      C3507   1.402       .  A
C3507      C3508   1.399       .  A
C3507      H3511   1.084       .  S
C3508      N3512   1.438       .  S
N3510      H3513   1.046       .  S
N3510      H3514   1.046       .  S
N3512      H3515   1.046       .  S
N3512      H3516   1.045   1_565  S
C3521      C3522   1.413       .  A
C3521      C3526   1.408       .  A
C3522      C3523   1.405       .  A
C3522      N3527   1.438       .  S
C3523      C3524   1.401       .  A
C3523      H3528   1.084       .  S
C3524      C3529   1.472       .  S
C3524      C3525   1.404       .  A
C3525      C3526   1.400       .  A
C3525      N3530   1.438       .  S
C3526      H3531   1.083       .  S
N3527      H3547   1.045       .  S
N3527      H3548   1.046       .  S
C3529      C3532   1.400       .  A
C3529      C3536   1.405       .  A
N3530      H3545   1.046       .  S
N3530      H3546   1.045       .  S
C3532      C3533   1.406       .  A
C3532      H3537   1.084       .  S
C3533      C3534   1.412       .  A
C3533      N3538   1.435       .  S
C3534      C3535   1.405       .  A
C3535      C3536   1.402       .  A
C3535      H3539   1.082       .  S
C3536      N3540   1.438       .  S
N3538      H3541   1.046       .  S
N3538      H3542   1.046       .  S
N3540      H3543   1.046       .  S
N3540      H3544   1.046       .  S
C3549      C3550   1.418       .  A
C3549      C3554   1.406       .  A
C3550      C3551   1.400       .  A
C3550      N3555   1.437       .  S
C3551      C3552   1.399       .  A
C3551      H3556   1.084       .  S
C3552      C3557   1.477       .  S
C3552      C3553   1.410       .  A
C3553      C3554   1.400       .  A
C3553      N3558   1.438       .  S
C3554      H3559   1.083       .  S
N3555      H3575   1.045       .  S
N3555      H3576   1.046       .  S
C3557      C3560   1.398       .  A
C3557      C3564   1.414       .  A
N3558      H3573   1.046       .  S
N3558      H3574   1.045       .  S
C3560      C3561   1.394       .  A
C3560      H3565   1.084       .  S
C3561      C3562   1.411       .  A
C3561      N3566   1.433       .  S
C3562      C3563   1.403       .  A
C3563      C3564   1.406       .  A
C3563      H3567   1.084       .  S
C3564      N3568   1.438       .  S
N3566      H3569   1.046       .  S
N3566      H3570   1.046       .  S
N3568      H3571   1.046       .  S
N3568      H3572   1.046       .  S
C3577      C3578   1.415       .  A
C3577      C3582   1.405       .  A
C3578      C3579   1.405       .  A
C3578      N3583   1.438   1_565  S
C3579      C3580   1.402       .  A
C3579      H3584   1.084   1_565  S
C3580      C3585   1.486       .  S
C3580      C3581   1.411       .  A
C3581      C3582   1.405       .  A
C3581      N3586   1.438       .  S
C3582      H3587   1.084       .  S
N3583      H3603   1.046       .  S
N3583      H3604   1.046       .  S
C3585      C3588   1.401       .  A
C3585      C3592   1.411       .  A
N3586      H3601   1.046       .  S
N3586      H3602   1.046       .  S
C3588      C3589   1.404       .  A
C3588      H3593   1.084       .  S
C3589      C3590   1.417       .  A
C3589      N3594   1.438       .  S
C3590      C3591   1.405       .  A
C3591      C3592   1.407       .  A
C3591      H3595   1.083   1_565  S
C3592      N3596   1.438   1_565  S
N3594      H3597   1.046       .  S
N3594      H3598   1.046       .  S
N3596      H3599   1.046       .  S
N3596      H3600   1.046       .  S
C3605      C3606   1.417       .  A
C3605      C3610   1.406       .  A
C3606      C3607   1.406       .  A
C3606      N3611   1.438       .  S
C3607      C3608   1.402       .  A
C3607      H3612   1.084       .  S
C3608      C3613   1.485       .  S
C3608      C3609   1.409       .  A
C3609      C3610   1.406       .  A
C3609      N3614   1.438       .  S
C3610      H3615   1.083       .  S
N3611      H3631   1.046       .  S
N3611      H3632   1.046       .  S
C3613      C3616   1.403       .  A
C3613      C3620   1.409       .  A
N3614      H3629   1.046       .  S
N3614      H3630   1.046       .  S
C3616      C3617   1.407       .  A
C3616      H3621   1.084       .  S
C3617      C3618   1.413       .  A
C3617      N3622   1.438       .  S
C3618      C3619   1.407       .  A
C3619      C3620   1.405       .  A
C3619      H3623   1.084       .  S
C3620      N3624   1.438       .  S
N3622      H3625   1.046       .  S
N3622      H3626   1.046       .  S
N3624      H3627   1.046       .  S
N3624      H3628   1.046       .  S
C3633      C3634   1.410       .  A
C3633      C3638   1.406       .  A
C3634      C3635   1.404       .  A
C3634      N3639   1.432       .  S
C3635      C3636   1.403       .  A
C3635      H3640   1.084       .  S
C3636      C3641   1.488       .  S
C3636      C3637   1.412       .  A
C3637      C3638   1.409       .  A
C3637      N3642   1.438       .  S
C3638      H3643   1.084       .  S
N3639      H3659   1.046       .  S
N3639      H3660   1.045       .  S
C3641      C3644   1.403       .  A
C3641      C3648   1.409       .  A
N3642      H3657   1.046       .  S
N3642      H3658   1.046       .  S
C3644      C3645   1.411       .  A
C3644      H3649   1.084       .  S
C3645      C3646   1.417       .  A
C3645      N3650   1.438       .  S
C3646      C3647   1.408       .  A
C3647      C3648   1.406       .  A
C3647      H3651   1.083       .  S
C3648      N3652   1.438       .  S
N3650      H3653   1.046       .  S
N3650      H3654   1.046       .  S
N3652      H3655   1.045       .  S
N3652      H3656   1.046       .  S
C3661      C3662   1.412       .  A
C3661      C3666   1.403       .  A
C3662      C3663   1.401       .  A
C3662      N3667   1.438   1_565  S
C3663      C3664   1.404       .  A
C3663      H3668   1.084   1_565  S
C3664      C3669   1.478   1_556  S
C3664      C3665   1.408       .  A
C3665      C3666   1.401       .  A
C3665      N3670   1.437       .  S
C3666      H3671   1.084       .  S
N3667      H3687   1.045       .  S
N3667      H3688   1.046       .  S
C3669      C3672   1.400       .  A
C3669      C3676   1.407       .  A
N3670      H3685   1.046       .  S
N3670      H3686   1.046       .  S
C3672      C3673   1.399       .  A
C3672      H3677   1.084       .  S
C3673      C3674   1.418       .  A
C3673      N3678   1.438       .  S
C3674      C3675   1.407       .  A
C3675      C3676   1.403       .  A
C3675      H3679   1.083   1_565  S
C3676      N3680   1.437   1_565  S
N3678      H3681   1.046       .  S
N3678      H3682   1.046       .  S
N3680      H3683   1.046       .  S
N3680      H3684   1.045       .  S
C3689      C3690   1.412       .  A
C3689      C3694   1.400       .  A
C3690      C3691   1.407       .  A
C3690      N3695   1.438       .  S
C3691      C3692   1.406       .  A
C3691      H3696   1.083       .  S
C3692      C3697   1.490       .  S
C3692      C3693   1.413       .  A
C3693      C3694   1.403       .  A
C3693      N3698   1.438       .  S
C3694      H3699   1.084       .  S
N3695      H3715   1.045       .  S
N3695      H3716   1.046       .  S
C3697      C3700   1.406       .  A
C3697      C3704   1.413       .  A
N3698      H3713   1.046       .  S
N3698      H3714   1.046       .  S
C3700      C3701   1.406       .  A
C3700      H3705   1.084       .  S
C3701      C3702   1.410       .  A
C3701      N3706   1.438       .  S
C3702      C3703   1.403       .  A
C3703      C3704   1.406       .  A
C3703      H3707   1.084       .  S
C3704      N3708   1.438       .  S
N3706      H3709   1.046       .  S
N3706      H3710   1.046       .  S
N3708      H3711   1.046       .  S
N3708      H3712   1.046       .  S
C3717      C3718   1.419       .  A
C3717      C3722   1.411       .  A
C3718      C3719   1.408       .  A
C3718      N3723   1.438       .  S
C3719      C3720   1.401       .  A
C3719      H3724   1.084       .  S
C3720      C3725   1.482       .  S
C3720      C3721   1.405       .  A
C3721      C3722   1.405       .  A
C3721      N3726   1.438       .  S
C3722      H3727   1.082       .  S
N3723      H3743   1.046       .  S
N3723      H3744   1.046       .  S
C3725      C3728   1.405       .  A
C3725      C3732   1.405       .  A
N3726      H3741   1.046       .  S
N3726      H3742   1.046       .  S
C3728      C3729   1.414       .  A
C3728      H3733   1.084       .  S
C3729      C3730   1.415       .  A
C3729      N3734   1.437       .  S
C3730      C3731   1.408       .  A
C3731      C3732   1.402       .  A
C3731      H3735   1.084       .  S
C3732      N3736   1.439       .  S
N3734      H3737   1.046       .  S
N3734      H3738   1.046       .  S
N3736      H3739   1.046       .  S
N3736      H3740   1.046       .  S
C3745      C3746   1.413       .  A
C3745      C3750   1.403   1_554  A
C3746      C3747   1.405       .  A
C3746      N3751   1.438       .  S
C3747      C3748   1.402       .  A
C3747      H3752   1.084       .  S
C3748      C3753   1.485       .  S
C3748      C3749   1.412   1_554  A
C3749      C3750   1.404       .  A
C3749      N3754   1.438       .  S
C3750      H3755   1.084       .  S
N3751      H3771   1.046       .  S
N3751      H3772   1.046       .  S
C3753      C3756   1.399   1_554  A
C3753      C3760   1.410       .  A
N3754      H3769   1.046       .  S
N3754      H3770   1.046       .  S
C3756      C3757   1.404       .  A
C3756      H3761   1.084       .  S
C3757      C3758   1.420   1_556  A
C3757      N3762   1.438       .  S
C3758      C3759   1.407       .  A
C3759      C3760   1.408       .  A
C3759      H3763   1.083       .  S
C3760      N3764   1.438       .  S
N3762      H3765   1.046       .  S
N3762      H3766   1.046       .  S
N3764      H3767   1.045       .  S
N3764      H3768   1.046       .  S
C3773      C3774   1.419       .  A
C3773      C3778   1.412       .  A
C3774      C3775   1.410       .  A
C3774      N3779   1.437       .  S
C3775      C3776   1.404       .  A
C3775      H3780   1.083       .  S
C3776      C3781   1.492       .  S
C3776      C3777   1.409       .  A
C3777      C3778   1.406       .  A
C3777      N3782   1.439       .  S
C3778      H3783   1.083       .  S
N3779      H3799   1.046       .  S
N3779      H3800   1.046       .  S
C3781      C3784   1.405       .  A
C3781      C3788   1.413       .  A
N3782      H3797   1.045       .  S
N3782      H3798   1.046       .  S
C3784      C3785   1.404       .  A
C3784      H3789   1.083       .  S
C3785      C3786   1.411       .  A
C3785      N3790   1.438       .  S
C3786      C3787   1.404       .  A
C3787      C3788   1.408       .  A
C3787      H3791   1.084       .  S
C3788      N3792   1.437       .  S
N3790      H3793   1.045       .  S
N3790      H3794   1.045       .  S
N3792      H3795   1.046       .  S
N3792      H3796   1.046       .  S
C3801      C3802   1.419       .  A
C3801      C3806   1.406       .  A
C3802      C3803   1.406       .  A
C3802      N3807   1.439       .  S
C3803      C3804   1.401       .  A
C3803      H3808   1.084       .  S
C3804      C3809   1.481       .  S
C3804      C3805   1.408       .  A
C3805      C3806   1.404       .  A
C3805      N3810   1.438       .  S
C3806      H3811   1.083       .  S
N3807      H3827   1.046       .  S
N3807      H3828   1.046       .  S
C3809      C3812   1.401       .  A
C3809      C3816   1.409       .  A
N3810      H3825   1.046       .  S
N3810      H3826   1.045       .  S
C3812      C3813   1.404       .  A
C3812      H3817   1.084       .  S
C3813      C3814   1.415       .  A
C3813      N3818   1.438       .  S
C3814      C3815   1.406       .  A
C3815      C3816   1.406       .  A
C3815      H3819   1.084       .  S
C3816      N3820   1.437       .  S
N3818      H3821   1.046       .  S
N3818      H3822   1.046       .  S
N3820      H3823   1.046       .  S
N3820      H3824   1.046       .  S
C3829      C3830   1.413   1_556  A
C3829      C3834   1.401       .  A
C3830      C3831   1.406       .  A
C3830      N3835   1.437       .  S
C3831      C3832   1.400   1_554  A
C3831      H3836   1.084       .  S
C3832      C3837   1.470   1_556  S
C3832      C3833   1.407       .  A
C3833      C3834   1.399       .  A
C3833      N3838   1.438       .  S
C3834      H3839   1.084       .  S
N3835      H3855   1.046       .  S
N3835      H3856   1.046       .  S
C3837      C3840   1.401       .  A
C3837      C3844   1.406   1_454  A
N3838      H3853   1.046       .  S
N3838      H3854   1.045       .  S
C3840      C3841   1.403   1_455  A
C3840      H3845   1.084       .  S
C3841      C3842   1.413       .  A
C3841      N3846   1.439       .  S
C3842      C3843   1.402   1_554  A
C3843      C3844   1.402       .  A
C3843      H3847   1.084       .  S
C3844      N3848   1.437   1_655  S
N3846      H3849   1.046       .  S
N3846      H3850   1.046       .  S
N3848      H3851   1.046   1_455  S
N3848      H3852   1.045       .  S
C3857      C3858   1.412       .  A
C3857      C3862   1.406       .  A
C3858      C3859   1.406       .  A
C3858      N3863   1.437       .  S
C3859      C3860   1.404       .  A
C3859      H3864   1.084       .  S
C3860      C3865   1.483       .  S
C3860      C3861   1.409       .  A
C3861      C3862   1.401       .  A
C3861      N3866   1.438       .  S
C3862      H3867   1.083       .  S
N3863      H3883   1.046       .  S
N3863      H3884   1.046       .  S
C3865      C3868   1.403       .  A
C3865      C3872   1.412       .  A
N3866      H3881   1.046       .  S
N3866      H3882   1.045       .  S
C3868      C3869   1.403       .  A
C3868      H3873   1.084       .  S
C3869      C3870   1.411       .  A
C3869      N3874   1.439       .  S
C3870      C3871   1.401       .  A
C3871      C3872   1.405       .  A
C3871      H3875   1.084       .  S
C3872      N3876   1.438       .  S
N3874      H3877   1.046       .  S
N3874      H3878   1.046       .  S
N3876      H3879   1.046       .  S
N3876      H3880   1.046       .  S
C3885      C3886   1.413       .  A
C3885      C3890   1.406       .  A
C3886      C3887   1.408       .  A
C3886      N3891   1.438       .  S
C3887      C3888   1.407       .  A
C3887      H3892   1.083       .  S
C3888      C3893   1.485       .  S
C3888      C3889   1.409       .  A
C3889      C3890   1.397       .  A
C3889      N3894   1.439       .  S
C3890      H3895   1.084       .  S
N3891      H3911   1.046       .  S
N3891      H3912   1.046       .  S
C3893      C3896   1.402       .  A
C3893      C3900   1.409       .  A
N3894      H3909   1.046       .  S
N3894      H3910   1.045       .  S
C3896      C3897   1.400       .  A
C3896      H3901   1.084       .  S
C3897      C3898   1.414       .  A
C3897      N3902   1.432       .  S
C3898      C3899   1.411       .  A
C3899      C3900   1.406       .  A
C3899      H3903   1.083       .  S
C3900      N3904   1.438       .  S
N3902      H3905   1.046       .  S
N3902      H3906   1.046       .  S
N3904      H3907   1.046       .  S
N3904      H3908   1.046       .  S
C3913      C3914   1.408       .  A
C3913      C3918   1.403   1_556  A
C3914      C3915   1.401       .  A
C3914      N3919   1.438       .  S
C3915      C3916   1.400   1_556  A
C3915      H3920   1.084       .  S
C3916      C3921   1.469       .  S
C3916      C3917   1.407       .  A
C3917      C3918   1.403       .  A
C3917      N3922   1.438       .  S
C3918      H3923   1.084       .  S
N3919      H3939   1.046       .  S
N3919      H3940   1.046       .  S
C3921      C3924   1.399   1_554  A
C3921      C3928   1.406       .  A
N3922      H3937   1.046       .  S
N3922      H3938   1.045       .  S
C3924      C3925   1.405       .  A
C3924      H3929   1.084       .  S
C3925      C3926   1.414   1_556  A
C3925      N3930   1.437       .  S
C3926      C3927   1.406       .  A
C3927      C3928   1.400       .  A
C3927      H3931   1.084       .  S
C3928      N3932   1.438       .  S
N3930      H3933   1.046       .  S
N3930      H3934   1.046       .  S
N3932      H3935   1.046       .  S
N3932      H3936   1.045       .  S
C3941      C3942   1.413       .  A
C3941      C3946   1.407       .  A
C3942      C3943   1.404       .  A
C3942      N3947   1.438       .  S
C3943      C3944   1.401       .  A
C3943      H3948   1.084       .  S
C3944      C3949   1.476       .  S
C3944      C3945   1.408       .  A
C3945      C3946   1.404       .  A
C3945      N3950   1.438       .  S
C3946      H3951   1.084       .  S
N3947      H3967   1.046       .  S
N3947      H3968   1.046       .  S
C3949      C3952   1.399       .  A
C3949      C3956   1.407       .  A
N3950      H3965   1.046       .  S
N3950      H3966   1.046       .  S
C3952      C3953   1.405       .  A
C3952      H3957   1.084       .  S
C3953      C3954   1.418       .  A
C3953      N3958   1.438       .  S
C3954      C3955   1.404       .  A
C3955      C3956   1.402       .  A
C3955      H3959   1.083       .  S
C3956      N3960   1.438       .  S
N3958      H3961   1.046       .  S
N3958      H3962   1.046       .  S
N3960      H3963   1.046       .  S
N3960      H3964   1.046       .  S
C3969      C3970   1.414       .  A
C3969      C3974   1.405       .  A
C3970      C3971   1.406       .  A
C3970      N3975   1.438       .  S
C3971      C3972   1.403       .  A
C3971      H3976   1.084       .  S
C3972      C3977   1.485       .  S
C3972      C3973   1.410       .  A
C3973      C3974   1.404       .  A
C3973      N3978   1.438       .  S
C3974      H3979   1.083       .  S
N3975      H3995   1.046       .  S
N3975      H3996   1.046       .  S
C3977      C3980   1.400       .  A
C3977      C3984   1.411       .  A
N3978      H3993   1.046       .  S
N3978      H3994   1.045       .  S
C3980      C3981   1.403       .  A
C3980      H3985   1.084       .  S
C3981      C3982   1.417       .  A
C3981      N3986   1.439       .  S
C3982      C3983   1.407       .  A
C3983      C3984   1.407       .  A
C3983      H3987   1.084       .  S
C3984      N3988   1.438       .  S
N3986      H3989   1.046       .  S
N3986      H3990   1.046       .  S
N3988      H3991   1.046       .  S
N3988      H3992   1.046       .  S
C3997      C3998   1.414   1_554  A
C3997      C4002   1.410       .  A
C3998      C3999   1.399       .  A
C3998      N4003   1.431       .  S
C3999      C4000   1.401   1_556  A
C3999      H4004   1.084       .  S
C4000      C4005   1.485       .  S
C4000      C4001   1.410       .  A
C4001      C4002   1.408       .  A
C4001      N4006   1.437       .  S
C4002      H4007   1.083       .  S
N4003      H4023   1.046       .  S
N4003      H4024   1.046       .  S
C4005      C4008   1.400       .  A
C4005      C4012   1.411       .  A
N4006      H4021   1.046       .  S
N4006      H4022   1.046       .  S
C4008      C4009   1.399   1_455  A
C4008      H4013   1.084       .  S
C4009      C4010   1.413       .  A
C4009      N4014   1.432       .  S
C4010      C4011   1.405       .  A
C4011      C4012   1.410   1_655  A
C4011      H4015   1.083   1_554  S
C4012      N4016   1.437   1_554  S
N4014      H4017   1.045       .  S
N4014      H4018   1.045       .  S
N4016      H4019   1.045       .  S
N4016      H4020   1.046       .  S
C4025      C4026   1.412       .  A
C4025      C4030   1.406       .  A
C4026      C4027   1.401       .  A
C4026      N4031   1.433       .  S
C4027      C4028   1.401       .  A
C4027      H4032   1.084       .  S
C4028      C4033   1.484       .  S
C4028      C4029   1.410       .  A
C4029      C4030   1.408       .  A
C4029      N4034   1.437       .  S
C4030      H4035   1.083       .  S
N4031      H4051   1.046       .  S
N4031      H4052   1.046       .  S
C4033      C4036   1.404       .  A
C4033      C4040   1.407       .  A
N4034      H4049   1.046       .  S
N4034      H4050   1.046       .  S
C4036      C4037   1.411       .  A
C4036      H4041   1.084       .  S
C4037      C4038   1.417       .  A
C4037      N4042   1.438       .  S
C4038      C4039   1.406       .  A
C4039      C4040   1.401       .  A
C4039      H4043   1.084       .  S
C4040      N4044   1.438       .  S
N4042      H4045   1.046       .  S
N4042      H4046   1.045       .  S
N4044      H4047   1.045       .  S
N4044      H4048   1.045       .  S
C4053      C4054   1.411       .  A
C4053      C4058   1.403       .  A
C4054      C4055   1.401       .  A
C4054      N4059   1.439       .  S
C4055      C4056   1.402       .  A
C4055      H4060   1.084       .  S
C4056      C4061   1.486       .  S
C4056      C4057   1.414       .  A
C4057      C4058   1.408       .  A
C4057      N4062   1.438       .  S
C4058      H4063   1.084       .  S
N4059      H4079   1.046       .  S
N4059      H4080   1.046       .  S
C4061      C4064   1.402       .  A
C4061      C4068   1.413       .  A
N4062      H4077   1.046       .  S
N4062      H4078   1.045       .  S
C4064      C4065   1.406       .  A
C4064      H4069   1.084       .  S
C4065      C4066   1.415       .  A
C4065      N4070   1.437       .  S
C4066      C4067   1.403       .  A
C4067      C4068   1.405       .  A
C4067      H4071   1.084       .  S
C4068      N4072   1.439       .  S
N4070      H4073   1.046       .  S
N4070      H4074   1.045       .  S
N4072      H4075   1.045       .  S
N4072      H4076   1.046       .  S
