geometry optimzed in LAMMPS
_audit_creation_date              2020-11-30 
_audit_creation_method            'lammps2cif' 
_symmetry_space_group_name_H-M    'P1' 
_symmetry_Int_Tables_number       1 
_symmetry_cell_setting            triclinic 
loop_ 
_symmetry_equiv_pos_as_xyz 
  x,y,z 
_cell_length_a                    48.66555112 
_cell_length_b                    47.91913048550491 
_cell_length_c                    19.832888574497492 
_cell_angle_alpha                 96.27741353666866 
_cell_angle_beta                  84.47349312104299 
_cell_angle_gamma                 120.48573492467379 
loop_ 
_atom_site_label 
_atom_site_type_symbol 
_atom_site_fract_x 
_atom_site_fract_y 
_atom_site_fract_z 
_atom_site_charge 
C1          C  0.32666820  0.16334523  0.01416176     0.29500
C2          C  0.32746894  0.16418652  0.35829981     0.29500
C3          C  0.35506706  0.16374982  0.96654380    -0.06700
C4          C  0.29871878  0.13435935  0.97225808    -0.07500
C5          C  0.32593288  0.19128539  0.98003870    -0.07400
C6          C  0.35572941  0.16487004  0.39316888    -0.06700
C7          C  0.29968093  0.13464879  0.39676302    -0.07500
C8          C  0.32614411  0.19176396  0.40797853    -0.07400
C9          C  0.37772386  0.15606177  0.36677314    -0.32800
N10         N  0.38958865  0.14912947  0.41756043     0.13700
C11         C  0.37756175  0.15527524  0.97704141    -0.32800
H12         H  0.38281364  0.15103728  0.02521899     0.15700
C13         C  0.26855934  0.11407623  0.37909344    -0.31800
N14         N  0.24871252  0.10241292  0.93800528     0.12500
C15         C  0.26727539  0.11432819  0.99239346    -0.31700
C16         C  0.33376526  0.22295109  0.39759158    -0.32000
N17         N  0.33602804  0.23982312  0.95261892     0.13000
H18         H  0.33909987  0.23323890  0.34896935     0.15600
C19         C  0.33170960  0.22164582  0.00482890    -0.32000
H20         H  0.33581788  0.23110699  0.05712058     0.15600
H21         H  0.25794308  0.11172714  0.04411855     0.15600
H22         H  0.38311289  0.15248986  0.31366012     0.15700
H23         H  0.25959572  0.11102241  0.32949074     0.15600
C24         C  0.32775589  0.16465183  0.26445324     0.29500
C25         C  0.32677850  0.16395479  0.10832063     0.29500
C26         C  0.32448093  0.13457401  0.21659933    -0.06700
C27         C  0.30141970  0.16787028  0.23131090    -0.07500
C28         C  0.35706304  0.19152153  0.22301193    -0.07400
C29         C  0.32405090  0.13429732  0.14214226    -0.06700
C30         C  0.30066740  0.16733003  0.15723641    -0.07500
C31         C  0.35658627  0.19101825  0.14842352    -0.07400
C32         C  0.33461004  0.11346377  0.11540207    -0.32800
N33         N  0.34250711  0.10254737  0.16607866     0.13700
C34         C  0.33531536  0.11385740  0.22660067    -0.32800
H35         H  0.34060075  0.10959649  0.27479191     0.15700
C36         C  0.27030288  0.16070551  0.14591329    -0.31800
N37         N  0.25299557  0.15640435  0.20590512     0.12500
C38         C  0.27199332  0.16219912  0.25728949    -0.31700
C39         C  0.37724817  0.22246576  0.13238640    -0.32000
N40         N  0.38910277  0.24186915  0.18964950     0.13000
H41         H  0.38026994  0.23151144  0.08306231     0.15600
C42         C  0.37783823  0.22343883  0.24382491    -0.32000
H43         H  0.38139276  0.23335371  0.29580483     0.15600
H44         H  0.26356793  0.15815365  0.30944099     0.15600
H45         H  0.33929931  0.10896950  0.06234149     0.15700
H46         H  0.26024146  0.15579852  0.09688749     0.15600
N47         N  0.07309726  0.06093290  0.43325543    -0.06700
N48         N  0.09755512  0.06852923  0.47086819    -0.58800
N49         N  0.04613778  0.08170716  0.31980237    -0.06300
N50         N  0.05441304  0.10557466  0.27971930    -0.60900
N51         N  0.03947355  0.09087853  0.38109103    -0.05900
N52         N  0.04356065  0.12036399  0.38425571    -0.58800
N53         N  0.07893288  0.05086159  0.37268893    -0.05600
N54         N  0.10632874  0.05133163  0.36710507    -0.61300
C55         C  0.11764889  0.06210105  0.42907816     0.95500
C56         C  0.05280693  0.12933467  0.32039725     0.95300
N57         N  0.50419813  0.46090566  0.21685668    -0.06800
N58         N  0.48363877  0.46310834  0.26086969    -0.59400
N59         N  0.04726288  0.48565044  0.32146945    -0.05000
N60         N  0.07341304  0.48390885  0.32296322    -0.60600
N61         N  0.02166232  0.45648936  0.32858304    -0.06900
N62         N  0.03033885  0.43477426  0.33411299    -0.59600
N63         N  0.03212425  0.99126129  0.21402106    -0.04600
N64         N  0.02885207  0.01329364  0.25310421    -0.60700
Mn65       Mn  0.04520227  0.03173201  0.29957726     1.18400
C66         C  0.49896599  0.99922243  0.25830477     0.97600
C67         C  0.06274994  0.45238107  0.33176103     0.98300
N68         N  0.47973196  0.05389931  0.40185740    -0.06900
N69         N  0.47628398  0.07864769  0.39002592    -0.63200
N70         N  0.45062884  0.52880466  0.51299329    -0.05700
N71         N  0.45416526  0.50441604  0.01103926    -0.63900
N72         N  0.97861878  0.05882172  0.51185024    -0.06400
N73         N  0.00054509  0.05254155  0.00924268    -0.63500
N74         N  0.45113749  0.02679558  0.40244098    -0.05300
N75         N  0.42866629  0.03362688  0.39122836    -0.64200
Mn76       Mn  0.02410906  0.05967239  0.46201358     1.10700
C77         C  0.44469813  0.06606048  0.38329126     0.98800
C78         C  0.48517649  0.51875911  0.02333984     0.98900
N79         N  0.45265710  0.41862438  0.39968640    -0.06400
N80         N  0.44448230  0.38780182  0.40007914    -0.61800
N81         N  0.41625565  0.45925123  0.37410612    -0.05700
N82         N  0.38610668  0.45163078  0.37290183    -0.58500
N83         N  0.42436300  0.44448993  0.32238215    -0.07000
N84         N  0.39881374  0.42659902  0.28596596    -0.61300
N85         N  0.43795704  0.42714123  0.44877200    -0.06000
N86         N  0.41952319  0.40139892  0.48441905    -0.58500
Mn87       Mn  0.47449797  0.44697229  0.31631031     1.20200
Mn88       Mn  0.44507511  0.48028768  0.46162793     1.10100
Cl89       Cl  0.49752095  0.00517128  0.38335012    -0.86500
C90         C  0.42411640  0.37736911  0.45443084     0.95800
C91         C  0.37559985  0.43148912  0.31678509     0.95600
N92         N  0.06782741  0.06536029  0.19816891    -0.06700
N93         N  0.09339332  0.08497160  0.23413988    -0.58800
N94         N  0.05289250  0.07580118  0.06720796    -0.06300
N95         N  0.07135155  0.10077669  0.03007957    -0.60900
N96         N  0.03833727  0.08536077  0.11626090    -0.05900
N97         N  0.04642859  0.11597802  0.11191203    -0.58800
N98         N  0.07552528  0.04849393  0.15192238    -0.05600
N99         N  0.10543540  0.05612072  0.15523091    -0.61300
C100        C  0.11650092  0.07867081  0.20750403     0.95500
C101        C  0.06692427  0.12528114  0.05722709     0.95300
N102        N  0.50656032  0.46563438  0.96242767    -0.06800
N103        N  0.48813847  0.46837905  0.50639024    -0.59400
N104        N  0.04309266  0.47416719  0.08262065    -0.05000
N105        N  0.06440546  0.46614917  0.09425830    -0.60600
N106        N  0.01464072  0.44778104  0.07616247    -0.06900
N107        N  0.01628789  0.42180984  0.08409594    -0.59600
N108        N  0.03343647  0.99426868  0.96309200    -0.04600
N109        N  0.03367340  0.01475772  0.51031864    -0.60700
Mn110      Mn  0.04885450  0.02457079  0.06472899     1.18400
C111        C  0.50163178  0.00007025  0.50873956     0.97600
C112        C  0.04717972  0.43333705  0.09600019     0.98300
N113        N  0.46902411  0.04838753  0.15156187    -0.06900
N114        N  0.46010708  0.06959728  0.14048799    -0.63200
N115        N  0.44163303  0.52006282  0.26174245    -0.05700
N116        N  0.44806401  0.49653470  0.26045519    -0.63900
N117        N  0.96903640  0.05149188  0.25925799    -0.06400
N118        N  0.99350944  0.04673281  0.25710955    -0.63500
N119        N  0.44345377  0.01853439  0.15133739    -0.05300
N120        N  0.41794642  0.01984181  0.13909909    -0.64200
Mn121      Mn  0.01609266  0.05790399  0.20560985     1.10700
C122        C  0.42798184  0.05127729  0.13283446     0.98800
C123        C  0.47909668  0.51220420  0.27279725     0.98900
N124        N  0.44703861  0.41592900  0.12901469    -0.06400
N125        N  0.44496351  0.38733909  0.12617072    -0.61800
N126        N  0.41114796  0.45735402  0.12507554    -0.05700
N127        N  0.38216294  0.45302106  0.12488633    -0.58500
N128        N  0.42077692  0.44998575  0.06486239    -0.07000
N129        N  0.39755676  0.44116612  0.02249923    -0.61300
N130        N  0.43658305  0.42297214  0.18754468    -0.06000
N131        N  0.42717662  0.39838163  0.22642057    -0.58500
Mn132      Mn  0.46963722  0.44886124  0.05378012     1.20200
Mn133      Mn  0.44004235  0.47334496  0.21148779     1.10100
Cl134      Cl  0.49328702  0.00180212  0.13305590    -0.86500
C135        C  0.43287343  0.37671158  0.18775977     0.95800
C136        C  0.37424068  0.44386590  0.06004732     0.95600
C137        C  0.16544464  0.33954389  0.21131516     0.29500
C138        C  0.16497470  0.33918096  0.36777467     0.29500
C139        C  0.16562550  0.36818127  0.25996870    -0.06700
C140        C  0.13700021  0.31113949  0.25147030    -0.07500
C141        C  0.19311741  0.33913466  0.24634331    -0.07400
C142        C  0.16540657  0.36799032  0.33440355    -0.06700
C143        C  0.13677994  0.31119823  0.32563144    -0.07500
C144        C  0.19260403  0.33859148  0.32037998    -0.07400
C145        C  0.15447950  0.38860999  0.36086838    -0.32800
N146        N  0.14765615  0.40055169  0.30997844     0.13700
C147        C  0.15513362  0.38918507  0.24951306    -0.32800
H148        H  0.15062680  0.39388582  0.20092091     0.15700
C149        C  0.11249843  0.28116680  0.34246775    -0.31800
N150        N  0.09900108  0.26256224  0.28524585     0.12500
C151        C  0.11295826  0.28064005  0.23065706    -0.31700
C152        C  0.22261972  0.34580188  0.33510964    -0.32000
N153        N  0.24159395  0.35268269  0.27763897     0.13000
H154        H  0.23109688  0.34862136  0.38504368     0.15600
C155        C  0.22400072  0.34769619  0.22360780    -0.32000
H156        H  0.23327848  0.35211116  0.17394568     0.15600
H157        H  0.10763292  0.27121297  0.17874036     0.15600
H158        H  0.14943718  0.39283337  0.41390298     0.15700
H159        H  0.10695127  0.27226145  0.39252503     0.15600
C160        C  0.16534017  0.33894060  0.46137985     0.29500
C161        C  0.16578152  0.33963811  0.11726957     0.29500
C162        C  0.13681475  0.33744120  0.50922177    -0.06700
C163        C  0.16645628  0.31088171  0.49451251    -0.07500
C164        C  0.19303742  0.36825400  0.50320630    -0.07400
C165        C  0.13674125  0.33720931  0.08287533    -0.06700
C166        C  0.16767295  0.31214537  0.06885352    -0.07500
C167        C  0.19269147  0.36924369  0.07737220    -0.07400
C168        C  0.11427188  0.34502455  0.10966248    -0.32800
N169        N  0.10086309  0.34968253  0.55885461     0.13700
C170        C  0.11333371  0.34410172  0.49827179    -0.32800
H171        H  0.10782877  0.34793986  0.45000950     0.15700
C172        C  0.15695418  0.28064586  0.08247238    -0.31800
N173        N  0.14715333  0.26027810  0.52429233     0.12500
C174        C  0.15468747  0.27878016  0.47104173    -0.31700
C175        C  0.22375217  0.39050524  0.09395373    -0.32000
N176        N  0.24309854  0.40059870  0.53723795     0.13000
H177        H  0.23274350  0.39474068  0.14386261     0.15600
C178        C  0.22442716  0.38924436  0.48292563    -0.32000
H179        H  0.23376412  0.39340382  0.43124510     0.15600
H180        H  0.14876299  0.26894112  0.41939123     0.15600
H181        H  0.10913093  0.34883320  0.16303564     0.15700
H182        H  0.15188865  0.27166500  0.13241839     0.15600
C183        C  0.12763282  0.22681014  0.02345070    -0.06700
C184        C  0.14063050  0.20644390  0.01740151    -0.17800
C185        C  0.12149949  0.17328547  0.02823067     0.10500
C186        C  0.08821238  0.15975539  0.04204787    -0.06600
C187        C  0.07524563  0.18021800  0.04737020    -0.17800
C188        C  0.09449059  0.21348075  0.03879254     0.10600
S189        S  0.14079198  0.15004823  0.03421475    -0.32800
S190        S  0.07340964  0.23520339  0.55270691    -0.32800
H191        H  0.09513835  0.26111296  0.51428361     0.28600
H192        H  0.17146045  0.17672269  0.04572334     0.28600
H193        H  0.16614334  0.21703235  0.00803195     0.19200
H194        H  0.04998213  0.17032168  0.05982359     0.19200
C195        C  0.27612977  0.41079587  0.03353770    -0.06700
C196        C  0.28493356  0.39130595  0.06312603    -0.17800
C197        C  0.31690943  0.40042044  0.06727169     0.10500
C198        C  0.34103826  0.42939832  0.04024408    -0.06600
C199        C  0.33236994  0.44762666  0.00543104    -0.17800
C200        C  0.30073350  0.43860291  0.50474200     0.10600
S201        S  0.32521338  0.37460034  0.11081945    -0.32800
S202        S  0.29270516  0.46658801  0.46906142    -0.32800
H203        H  0.26303131  0.45714193  0.50355803     0.28600
H204        H  0.35442142  0.38257152  0.07542086     0.28600
H205        H  0.26703689  0.36921591  0.08295343     0.19200
H206        H  0.35156413  0.46995269  0.48919908     0.19200
C207        C  0.08883260  0.37244702  0.06998302    -0.06700
C208        C  0.05435320  0.35649874  0.57947336    -0.17800
C209        C  0.04242373  0.37827949  0.10047926     0.10500
C210        C  0.06132096  0.41219324  0.09316028    -0.06600
C211        C  0.09421040  0.42584870  0.07773536    -0.17800
C212        C  0.10815181  0.40631249  0.06633605     0.10600
S213        S  0.99753122  0.35619605  0.60460316    -0.32800
S214        S  0.15063214  0.42464770  0.04798681    -0.32800
H215        H  0.15795905  0.45714215  0.05972944     0.28600
H216        H  0.99331764  0.32671564  0.11071667     0.28600
H217        H  0.03985020  0.33036743  0.58030493     0.19200
H218        H  0.10890281  0.45172801  0.07276844     0.19200
C219        C  0.08234744  0.22762629  0.28236150    -0.06700
C220        C  0.09608417  0.21130272  0.24273340    -0.17800
C221        C  0.08624599  0.17882412  0.25160560     0.10500
C222        C  0.06166687  0.16198806  0.30073481    -0.06600
C223        C  0.04659632  0.17782335  0.33716707    -0.17800
C224        C  0.05640105  0.21015572  0.32790700     0.10600
S225        S  0.10766880  0.16078019  0.20489005    -0.32800
S226        S  0.03539435  0.22819890  0.37636207    -0.32800
H227        H  0.04358928  0.25236369  0.33152554     0.28600
H228        H  0.13136200  0.18869388  0.17382339     0.28600
H229        H  0.11619106  0.22485767  0.20830582     0.19200
H230        H  0.02734540  0.16509430  0.37418713     0.19200
C231        C  0.27574262  0.37226502  0.27865079    -0.06700
C232        C  0.29370124  0.35748882  0.28538862    -0.17800
C233        C  0.32624749  0.37611433  0.29820991     0.10500
C234        C  0.34141570  0.41044384  0.30324635    -0.06600
C235        C  0.32343574  0.42521893  0.29602203    -0.17800
C236        C  0.29078543  0.40649465  0.28370199     0.10600
S237        S  0.34631825  0.35454209  0.31272898    -0.32800
S238        S  0.26806096  0.42627254  0.27700452    -0.32800
H239        H  0.29246782  0.45803430  0.29468202     0.28600
H240        H  0.36486169  0.37670595  0.36484931     0.28600
H241        H  0.28188467  0.33125157  0.28355477     0.19200
H242        H  0.33505374  0.45147606  0.30020710     0.19200
C243        C  0.08435245  0.43871840  0.32870179    -0.06700
C244        C  0.11372291  0.45441664  0.29138849    -0.17800
C245        C  0.13527473  0.44293671  0.28627539     0.10500
C246        C  0.12743479  0.41476270  0.31819792    -0.06600
C247        C  0.09818920  0.39910955  0.35581647    -0.17800
C248        C  0.07688595  0.41093401  0.36208970     0.10600
S249        S  0.17275277  0.46571094  0.23977031    -0.32800
S250        S  0.04122619  0.39008379  0.41518198    -0.32800
H251        H  0.04226913  0.41864605  0.44450859     0.28600
H252        H  0.19030247  0.45735297  0.27727457     0.28600
H253        H  0.12006605  0.47592098  0.26589565     0.19200
H254        H  0.09185269  0.37737678  0.38029523     0.17000
C255        C  0.36398108  0.09008456  0.15699799    -0.06700
C256        C  0.35146779  0.05675440  0.15257508    -0.17800
C257        C  0.37137712  0.04332029  0.14489127     0.10500
C258        C  0.40529812  0.06404614  0.13932175    -0.06600
C259        C  0.41765530  0.09782713  0.14358939    -0.17800
C260        C  0.39734065  0.11098196  0.15324141     0.10600
S261        S  0.35193010  0.99966997  0.14469821    -0.32800
S262        S  0.41385803  0.15441196  0.16144065    -0.32800
H263        H  0.44574984  0.16262860  0.16694851     0.28600
H264        H  0.32086564  0.99333107  0.16450181     0.28600
H265        H  0.32577152  0.04131418  0.15592101     0.19200
H266        H  0.44325313  0.11398064  0.14014519     0.19200
C267        C  0.39984859  0.27603071  0.19459469    -0.06700
C268        C  0.38052684  0.28624605  0.16995721    -0.17800
C269        C  0.38985136  0.31909845  0.17203142     0.10500
C270        C  0.41882398  0.34238289  0.20061731    -0.06600
C271        C  0.43729170  0.33226224  0.22938761    -0.17800
C272        C  0.42828219  0.29928881  0.22582705     0.10600
S273        S  0.36522165  0.33133940  0.13618397    -0.32800
S274        S  0.45476658  0.28847943  0.25790266    -0.32800
H275        H  0.44699768  0.26135810  0.21175033     0.28600
H276        H  0.33919911  0.29998394  0.12277573     0.28600
H277        H  0.35810408  0.26825453  0.14851163     0.19200
H278        H  0.45984373  0.35026925  0.25070605     0.19200
C279        C  0.15134481  0.09829727  0.21949922    -0.06700
C280        C  0.17028234  0.08563999  0.18838048    -0.17800
C281        C  0.20345128  0.10367727  0.18748813     0.10500
C282        C  0.21880392  0.13653058  0.21235790    -0.06600
C283        C  0.20038624  0.14872772  0.24831658    -0.17800
C284        C  0.16689022  0.12939067  0.25495653     0.10600
S285        S  0.22461030  0.08249377  0.15818644    -0.32800
S286        S  0.14621672  0.14508144  0.31235330    -0.32800
H287        H  0.12521608  0.11524822  0.34002520     0.28600
H288        H  0.24931271  0.09943851  0.20345975     0.28600
H289        H  0.15917126  0.06106158  0.16524907     0.19200
H290        H  0.21224878  0.17304508  0.27264596     0.19200
C291        C  0.42978715  0.08694783  0.39027466    -0.06700
C292        C  0.44695412  0.11856147  0.42185821    -0.17800
C293        C  0.43439938  0.13947003  0.43078833     0.10500
C294        C  0.40396661  0.12897125  0.40779684    -0.06600
C295        C  0.38659361  0.09742967  0.37687056    -0.17800
C296        C  0.39908491  0.07646268  0.36773602     0.10600
S297        S  0.45824795  0.17931153  0.47163064    -0.32800
S298        S  0.37495940  0.03705905  0.32567793    -0.32800
H299        H  0.40010250  0.03960768  0.28086430     0.28600
H300        H  0.44586967  0.19464450  0.43814167     0.28600
H301        H  0.47037094  0.12714779  0.44032826     0.19200
H302        H  0.36324184  0.08966064  0.85831008     0.19200
C303        C  0.35877084  0.27512912  0.46506308    -0.06700
C304        C  0.39174242  0.28739214  0.46596758    -0.17800
C305        C  0.41347378  0.32072847  0.46582478     0.10500
C306        C  0.40212730  0.34252992  0.46406636    -0.06600
C307        C  0.36899266  0.33028449  0.46569115    -0.17800
C308        C  0.34725238  0.29684834  0.46689181     0.10600
S309        S  0.45529089  0.33372343  0.46701717    -0.32800
S310        S  0.30323408  0.28266406  0.94970087    -0.32800
H311        H  0.29300595  0.25017968  0.92756120     0.28600
H312        H  0.46490919  0.36475661  0.49886257     0.28600
H313        H  0.40053156  0.27062265  0.46548752     0.19200
H314        H  0.35997532  0.34675829  0.46481031     0.19200
C315        C  0.15070352  0.07215878  0.44234767    -0.06700
C316        C  0.17381109  0.10480957  0.43698857    -0.17800
C317        C  0.20451933  0.11409546  0.94437850     0.10500
C318        C  0.21614322  0.09228935  0.43982628    -0.06600
C319        C  0.19309677  0.05948988  0.44527217    -0.17800
C320        C  0.16040209  0.04923247  0.44723523     0.10600
S321        S  0.23281419  0.15708027  0.94582359    -0.32800
S322        S  0.13216217  0.00657747  0.45370397    -0.32800
H323        H  0.10712946  0.01057068  0.48538075     0.28600
H324        H  0.21031106  0.16746451  0.95686715     0.28600
H325        H  0.16398394  0.12012706  0.93944911     0.19200
H326        H  0.20065823  0.04190698  0.44747320     0.19200
C327        C  0.32646423  0.16286728  0.51454226     0.29500
C328        C  0.32673056  0.16296536  0.85788186     0.29500
C329        C  0.35532544  0.16425200  0.46735256    -0.06700
C330        C  0.29916267  0.13409734  0.47119334    -0.07500
C331        C  0.32542894  0.19088352  0.48195464    -0.07400
C332        C  0.35502618  0.16376634  0.89245152    -0.06700
C333        C  0.29883221  0.13405659  0.89772005    -0.07500
C334        C  0.32591370  0.19107447  0.90604370    -0.07400
C335        C  0.37744584  0.15568074  0.86576320    -0.32800
N336        N  0.38998436  0.14945704  0.91637387     0.13700
C337        C  0.37716767  0.15502571  0.47797874    -0.32800
H338        H  0.38189709  0.15022907  0.52628845     0.15700
C339        C  0.26752284  0.11341180  0.88091743    -0.31800
N340        N  0.24951280  0.10240952  0.43556914     0.12500
C341        C  0.26774043  0.11366433  0.49041383    -0.31700
C342        C  0.33157967  0.22128629  0.89333615    -0.32000
N343        N  0.33800857  0.24056831  0.45812564     0.13000
H344        H  0.33545686  0.23042819  0.84383853     0.15600
C345        C  0.33195088  0.22114917  0.50888189    -0.32000
H346        H  0.33520888  0.22949128  0.56160569     0.15600
H347        H  0.25820043  0.11068675  0.54174932     0.15600
H348        H  0.38262742  0.15197524  0.81252911     0.15700
H349        H  0.25836369  0.10957794  0.83130938     0.15600
C350        C  0.32706502  0.16306379  0.76436089     0.29500
C351        C  0.32619298  0.16280739  0.60859185     0.29500
C352        C  0.32421055  0.13318911  0.71611542    -0.06700
C353        C  0.30063682  0.16610050  0.73167962    -0.07500
C354        C  0.35617905  0.19022195  0.72361298    -0.07400
C355        C  0.32375123  0.13311387  0.64177584    -0.06700
C356        C  0.29977427  0.16562667  0.65773032    -0.07500
C357        C  0.35584998  0.18995000  0.64913274    -0.07400
C358        C  0.33397242  0.11206509  0.61444680    -0.32800
N359        N  0.34189693  0.10091779  0.66469516     0.13700
C360        C  0.33506279  0.11237034  0.72554430    -0.32800
H361        H  0.34059053  0.10814150  0.77345462     0.15700
C362        C  0.26919991  0.15864591  0.64704574    -0.31800
N363        N  0.25211650  0.15439796  0.70744076     0.12500
C364        C  0.27136393  0.16052502  0.75848702    -0.31700
C365        C  0.37633193  0.22157510  0.63382598    -0.32000
N366        N  0.38762106  0.24080268  0.69157442     0.13000
H367        H  0.37985704  0.23077178  0.58467875     0.15600
C368        C  0.37643730  0.22211115  0.74521762    -0.32000
H369        H  0.37973515  0.23180020  0.79752558     0.15600
H370        H  0.26326205  0.15697810  0.81082568     0.15600
H371        H  0.33840516  0.10754014  0.56118604     0.15700
H372        H  0.25887751  0.15346445  0.59828749     0.15600
N373        N  0.07206680  0.06022451  0.93311449    -0.06700
N374        N  0.09636561  0.06768617  0.97115559    -0.58800
N375        N  0.04634669  0.08271694  0.82160470    -0.06300
N376        N  0.05544918  0.10690675  0.78177492    -0.60900
N377        N  0.03942289  0.09177548  0.88265868    -0.05900
N378        N  0.04396776  0.12144871  0.88614579    -0.58800
N379        N  0.07739408  0.04890446  0.87335286    -0.05600
N380        N  0.10439207  0.04849726  0.86886790    -0.61300
C381        C  0.11590546  0.05983258  0.93075458     0.95500
C382        C  0.05397510  0.13076658  0.82266018     0.95300
N383        N  0.50566863  0.46017365  0.72063947    -0.06800
N384        N  0.48381952  0.46266299  0.76009756    -0.59400
N385        N  0.04721640  0.48398435  0.81744803    -0.05000
N386        N  0.07363272  0.48247475  0.81556910    -0.60600
N387        N  0.02192891  0.45479832  0.82618855    -0.06900
N388        N  0.03112419  0.43326634  0.82925480    -0.59600
N389        N  0.03241374  0.98894700  0.72121578    -0.04600
N390        N  0.02813225  0.01165176  0.75501785    -0.60700
Mn391      Mn  0.04349045  0.03179751  0.79972624     1.18400
C392        C  0.49527075  0.99359396  0.75746458     0.97600
C393        C  0.06353947  0.45103428  0.82386231     0.98300
N394        N  0.47857607  0.05269173  0.89872961    -0.06900
N395        N  0.47579888  0.07773379  0.88590404    -0.63200
N396        N  0.44922769  0.52897237  0.01105333    -0.05700
N397        N  0.45567176  0.50425582  0.51169565    -0.63900
N398        N  0.97783407  0.05973192  0.01095427    -0.06400
N399        N  0.00157490  0.05194157  0.50981355    -0.63500
N400        N  0.44967316  0.02604111  0.89986750    -0.05300
N401        N  0.42773609  0.03344821  0.88777830    -0.64200
Mn402      Mn  0.02319128  0.05988232  0.96208549     1.10700
C403        C  0.44436590  0.06579263  0.87902187     0.98800
C404        C  0.48675976  0.51870019  0.52325728     0.98900
N405        N  0.45109047  0.41866115  0.89869664    -0.06400
N406        N  0.44269693  0.38776976  0.89806917    -0.61800
N407        N  0.41436872  0.45837454  0.87340231    -0.05700
N408        N  0.38407017  0.45016797  0.87137381    -0.58500
N409        N  0.42295328  0.44395472  0.82183448    -0.07000
N410        N  0.39779581  0.42590890  0.78446560    -0.61300
N411        N  0.43611568  0.42692749  0.94762896    -0.06000
N412        N  0.41717028  0.40091331  0.98214558    -0.58500
Mn413      Mn  0.47323787  0.44755661  0.81634778     1.20200
Mn414      Mn  0.44344414  0.48007405  0.96132885     1.10100
Cl415      Cl  0.49380644  0.00445209  0.88278129    -0.86500
C416        C  0.42185693  0.37698509  0.95157317     0.95800
C417        C  0.37410010  0.43013596  0.81480149     0.95600
N418        N  0.06761944  0.06405883  0.70170028    -0.06700
N419        N  0.09296855  0.08333111  0.73849224    -0.58800
N420        N  0.05384924  0.07494235  0.56947686    -0.06300
N421        N  0.07254502  0.10007803  0.53292447    -0.60900
N422        N  0.03928065  0.08454143  0.61840024    -0.05900
N423        N  0.04763951  0.11525760  0.61471495    -0.58800
N424        N  0.07516457  0.04675914  0.65635018    -0.05600
N425        N  0.10470813  0.05361669  0.66130402    -0.61300
C426        C  0.11576655  0.07624167  0.71341348     0.95500
C427        C  0.06826057  0.12459990  0.56039460     0.95300
N428        N  0.50898508  0.46577393  0.46436324    -0.06800
N429        N  0.48616562  0.46824908  0.00588867    -0.59400
N430        N  0.04290596  0.47388406  0.58021329    -0.05000
N431        N  0.06393520  0.46513984  0.59009891    -0.60600
N432        N  0.01433409  0.44778775  0.57264416    -0.06900
N433        N  0.01558345  0.42138770  0.57813935    -0.59600
N434        N  0.03502233  0.99390867  0.46458764    -0.04600
N435        N  0.03228361  0.01513784  0.00912258    -0.60700
Mn436      Mn  0.04955362  0.02346902  0.56758575     1.18400
C437        C  0.49884773  0.99979037  0.00822539     0.97600
C438        C  0.04634763  0.43218900  0.58960410     0.98300
N439        N  0.46753614  0.04567165  0.65194810    -0.06900
N440        N  0.45893223  0.06723090  0.64168457    -0.63200
N441        N  0.44050120  0.51838957  0.76124076    -0.05700
N442        N  0.44752349  0.49527406  0.75902690    -0.63900
N443        N  0.96953690  0.05113350  0.75964839    -0.06400
N444        N  0.99366680  0.04581268  0.75734570    -0.63500
N445        N  0.44194491  0.01583388  0.64858386    -0.05300
N446        N  0.41679600  0.01752681  0.63514892    -0.64200
Mn447      Mn  0.01637880  0.05713813  0.70679970     1.10700
C448        C  0.42700080  0.04913211  0.63135032     0.98800
C449        C  0.47857568  0.51143082  0.77073525     0.98900
N450        N  0.44798406  0.41556563  0.62929744    -0.06400
N451        N  0.44527402  0.38666612  0.62635826    -0.61800
N452        N  0.41108488  0.45583711  0.62446947    -0.05700
N453        N  0.38166151  0.45030653  0.62412650    -0.58500
N454        N  0.42141703  0.44941876  0.56424159    -0.07000
N455        N  0.39827182  0.44026898  0.52140362    -0.61300
N456        N  0.43679322  0.42233689  0.68719747    -0.06000
N457        N  0.42633569  0.39742126  0.72558420    -0.58500
Mn458      Mn  0.47088999  0.44903130  0.55411644     1.20200
Mn459      Mn  0.43971895  0.47222908  0.71071249     1.10100
Cl460      Cl  0.49266697  0.99826302  0.63280810    -0.86500
C461        C  0.43204837  0.37569163  0.68729309     0.95800
C462        C  0.37417493  0.44144114  0.55903378     0.95600
C463        C  0.16554012  0.33913833  0.71140194     0.29500
C464        C  0.16509569  0.33962433  0.86766587     0.29500
C465        C  0.16858575  0.36931357  0.75850389    -0.06700
C466        C  0.13576424  0.31249287  0.75260769    -0.07500
C467        C  0.19179669  0.33612387  0.74633318    -0.07400
C468        C  0.16836008  0.36962950  0.83310323    -0.06700
C469        C  0.13563764  0.31295236  0.82686957    -0.07500
C470        C  0.19118249  0.33593513  0.82054347    -0.07400
C471        C  0.15801889  0.39096996  0.85798467    -0.32800
N472        N  0.15161957  0.40284661  0.80621770     0.13700
C473        C  0.15872031  0.39063195  0.74657404    -0.32800
H474        H  0.15348370  0.39417813  0.69764938     0.15700
C475        C  0.11159665  0.28290367  0.84438484    -0.31800
N476        N  0.09803869  0.26395070  0.78760133     0.12500
C477        C  0.11180821  0.28176350  0.73257636    -0.31700
C478        C  0.22095645  0.34258590  0.83571896    -0.32000
N479        N  0.23996212  0.34867498  0.77838407     0.13000
H480        H  0.22946025  0.34643563  0.88611075     0.15600
C481        C  0.22253003  0.34393624  0.72437783    -0.32000
H482        H  0.23253161  0.34910673  0.67338049     0.15600
H483        H  0.10687829  0.27184134  0.68085437     0.15600
H484        H  0.15234603  0.39511687  0.91069278     0.15700
H485        H  0.10692031  0.27403905  0.89430598     0.15600
C486        C  0.16545220  0.33945317  0.96121490     0.29500
C487        C  0.16571815  0.33909825  0.61749964     0.29500
C488        C  0.13672892  0.33753497  0.00876487    -0.06700
C489        C  0.16719313  0.31173989  0.99431307    -0.07500
C490        C  0.19280068  0.36899072  0.00294259    -0.07400
C491        C  0.13706180  0.33755016  0.58327515    -0.06700
C492        C  0.16670217  0.31114363  0.56911623    -0.07500
C493        C  0.19304767  0.36826581  0.57749409    -0.07400
C494        C  0.11394517  0.34450752  0.60992301    -0.32800
N495        N  0.10240769  0.35189311  0.05910122     0.13700
C496        C  0.11474546  0.34638331  0.99832635    -0.32800
H497        H  0.11030548  0.35166841  0.95058302     0.15700
C498        C  0.15511366  0.27946655  0.58266917    -0.31800
N499        N  0.14882581  0.26128381  0.02433791     0.12500
C500        C  0.15565793  0.27962427  0.97101432    -0.31700
C501        C  0.22417575  0.38913562  0.59408151    -0.32000
N502        N  0.24278511  0.40141708  0.03696679     0.13000
H503        H  0.23326027  0.39262710  0.64364267     0.15600
C504        C  0.22421217  0.38958077  0.98255485    -0.32000
H505        H  0.23364239  0.39264988  0.93054516     0.15600
H506        H  0.14897613  0.26963094  0.91978307     0.15600
H507        H  0.10930506  0.34910849  0.66311237     0.15700
H508        H  0.14970508  0.27037431  0.63251045     0.15600
C509        C  0.12643553  0.22575239  0.52255914    -0.06700
C510        C  0.13998296  0.20588260  0.51402784    -0.17800
C511        C  0.12177071  0.17288529  0.52587275     0.10500
C512        C  0.08874701  0.15891758  0.54397778    -0.06600
C513        C  0.07501293  0.17871882  0.54993460    -0.17800
C514        C  0.09338963  0.21186198  0.53962527     0.10600
S515        S  0.14321077  0.15143957  0.52549334    -0.32800
S516        S  0.07538719  0.23765570  0.05276192    -0.32800
H517        H  0.09736859  0.26351131  0.01467925     0.28600
H518        H  0.12781761  0.13569747  0.58504271     0.28600
H519        H  0.16544177  0.21674425  0.50281762     0.19200
H520        H  0.04981294  0.16838959  0.56393687     0.19200
C521        C  0.27641850  0.40987316  0.53311091    -0.06700
C522        C  0.28491921  0.38920376  0.55846850    -0.17800
C523        C  0.31673492  0.39764049  0.56169607     0.10500
C524        C  0.34118809  0.42733405  0.53783655    -0.06600
C525        C  0.33286041  0.44689019  0.50699780    -0.17800
C526        C  0.29999204  0.43837638  0.00132606     0.10600
S527        S  0.32450785  0.37019529  0.60036196    -0.32800
S528        S  0.28946270  0.46275469  0.95888611    -0.32800
H529        H  0.31947353  0.48084376  0.92542650     0.28600
H530        H  0.35432255  0.37966063  0.56650954     0.28600
H531        H  0.26639737  0.36633991  0.57716741     0.19200
H532        H  0.35090544  0.47001552  0.98521145     0.19200
C533        C  0.08720522  0.37021410  0.56814770    -0.06700
C534        C  0.05652017  0.35889183  0.08870293    -0.17800
C535        C  0.04030481  0.37601827  0.58922706     0.10500
C536        C  0.05984091  0.41031367  0.58673035    -0.06600
C537        C  0.09304738  0.42387974  0.57723206    -0.17800
C538        C  0.10686598  0.40417586  0.56807216     0.10600
S539        S  0.00059467  0.35902369  0.12646131    -0.32800
S540        S  0.14966976  0.42230158  0.55647102    -0.32800
H541        H  0.15688753  0.45479674  0.56016570     0.28600
H542        H  0.99180526  0.32456046  0.60886918     0.28600
H543        H  0.04249214  0.33301464  0.09409071     0.19200
H544        H  0.10818577  0.44991470  0.57570638     0.19200
C545        C  0.08254065  0.22907518  0.78531629    -0.06700
C546        C  0.09794375  0.21370330  0.74864770    -0.17800
C547        C  0.08845887  0.18126066  0.75704533     0.10500
C548        C  0.06276222  0.16352188  0.80329155    -0.06600
C549        C  0.04637637  0.17853584  0.83738705    -0.17800
C550        C  0.05577250  0.21083693  0.82842314     0.10600
S551        S  0.11154991  0.16434650  0.71359791    -0.32800
S552        S  0.03323693  0.22780736  0.87441954    -0.32800
H553        H  0.04249208  0.25283420  0.83120725     0.28600
H554        H  0.13217804  0.19094745  0.67523989     0.28600
H555        H  0.11895317  0.22799258  0.71689037     0.19200
H556        H  0.02634176  0.16514598  0.87234829     0.19200
C557        C  0.27408319  0.36876841  0.77970247    -0.06700
C558        C  0.29271241  0.35471631  0.78660826    -0.17800
C559        C  0.32563333  0.37412975  0.79635285     0.10500
C560        C  0.34001547  0.40837614  0.80060307    -0.06600
C561        C  0.32130332  0.42234967  0.79355134    -0.17800
C562        C  0.28857290  0.40291344  0.78266988     0.10600
S563        S  0.34835785  0.35490519  0.80846643    -0.32800
S564        S  0.26496421  0.42171984  0.77569711    -0.32800
H565        H  0.29000020  0.45410566  0.78275179     0.28600
H566        H  0.32480973  0.32304324  0.78862923     0.28600
H567        H  0.28114723  0.32854048  0.78621661     0.19200
H568        H  0.33240520  0.44855532  0.79703181     0.19200
C569        C  0.08573305  0.43793209  0.82038862    -0.06700
C570        C  0.11540814  0.45448996  0.78425013    -0.17800
C571        C  0.13778852  0.44401620  0.78025105     0.10500
C572        C  0.13060325  0.41614298  0.81269710    -0.06600
C573        C  0.10093184  0.39942969  0.84821061    -0.17800
C574        C  0.07871441  0.41005964  0.85294849     0.10600
S575        S  0.17518663  0.46745803  0.73382534    -0.32800
S576        S  0.04240571  0.38742758  0.90310171    -0.32800
H577        H  0.04342267  0.41518572  0.93760702     0.28600
H578        H  0.19313043  0.45874889  0.76905795     0.28600
H579        H  0.12136217  0.47593272  0.75894857     0.19200
H580        H  0.09493305  0.37768757  0.87218619     0.17000
C581        C  0.36318003  0.08817687  0.65486486    -0.06700
C582        C  0.35054317  0.05480125  0.65168727    -0.17800
C583        C  0.37035392  0.04121235  0.64367429     0.10500
C584        C  0.40430096  0.06186317  0.63746407    -0.06600
C585        C  0.41673942  0.09560457  0.64008891    -0.17800
C586        C  0.39654468  0.10889753  0.64933292     0.10600
S587        S  0.35079103  0.99761324  0.64635577    -0.32800
S588        S  0.41327406  0.15235411  0.65593026    -0.32800
H589        H  0.44541745  0.16058983  0.64460636     0.28600
H590        H  0.31945591  0.99035309  0.63731814     0.28600
H591        H  0.32488669  0.03947380  0.65719856     0.19200
H592        H  0.44232687  0.11161513  0.63600961     0.19200
C593        C  0.39813919  0.27491641  0.69699922    -0.06700
C594        C  0.37906376  0.28513361  0.67114858    -0.17800
C595        C  0.38867072  0.31803543  0.67213020     0.10500
C596        C  0.41769557  0.34133033  0.70041923    -0.06600
C597        C  0.43557985  0.33119673  0.73138818    -0.17800
C598        C  0.42621676  0.29817548  0.72941653     0.10600
S599        S  0.36415595  0.33025750  0.63605321    -0.32800
S600        S  0.45176614  0.28736323  0.76572203    -0.32800
H601        H  0.44424068  0.25967062  0.72156983     0.28600
H602        H  0.33750572  0.29901446  0.62579547     0.28600
H603        H  0.35671668  0.26720631  0.64974214     0.19200
H604        H  0.45786286  0.34916440  0.75358804     0.19200
C605        C  0.15063955  0.09577337  0.72478426    -0.06700
C606        C  0.16949463  0.08355160  0.69099324    -0.17800
C607        C  0.20261957  0.10177918  0.68837793     0.10500
C608        C  0.21798845  0.13434605  0.71499896    -0.06600
C609        C  0.19975038  0.14591198  0.75428320    -0.17800
C610        C  0.16629019  0.12646580  0.76172474     0.10600
S611        S  0.22377446  0.08111173  0.65478229    -0.32800
S612        S  0.14577405  0.14173198  0.82089840    -0.32800
H613        H  0.12403380  0.11151748  0.84590351     0.28600
H614        H  0.24842726  0.09708485  0.70048111     0.28600
H615        H  0.15838144  0.05920850  0.66659418     0.19200
H616        H  0.21172414  0.16992027  0.78006447     0.19200
C617        C  0.43008837  0.08721396  0.88609887    -0.06700
C618        C  0.44756161  0.11880390  0.91769444    -0.17800
C619        C  0.43502298  0.13975202  0.92808700     0.10500
C620        C  0.40442479  0.12934696  0.90602899    -0.06600
C621        C  0.38694242  0.09792762  0.87465385    -0.17800
C622        C  0.39931099  0.07690759  0.86450778     0.10600
S623        S  0.45891938  0.17926746  0.97025229    -0.32800
S624        S  0.37470812  0.03745889  0.82310095    -0.32800
H625        H  0.39970488  0.03915593  0.77884115     0.28600
H626        H  0.44579041  0.19482819  0.94011715     0.28600
H627        H  0.47104400  0.12719838  0.93555614     0.19200
H628        H  0.36297122  0.08909318  0.35980350     0.19200
C629        C  0.35649654  0.27445839  0.95621610    -0.06700
C630        C  0.38939748  0.28687084  0.95915014    -0.17800
C631        C  0.41104941  0.32019095  0.96026062     0.10500
C632        C  0.39971282  0.34202755  0.95925847    -0.06600
C633        C  0.36664610  0.32969458  0.95799746    -0.17800
C634        C  0.34495651  0.29610975  0.95517994     0.10600
S635        S  0.45280665  0.33309346  0.96229091    -0.32800
S636        S  0.30523680  0.28313839  0.47009487    -0.32800
H637        H  0.29554698  0.25488101  0.50330605     0.28600
H638        H  0.46213190  0.36368107  0.99620901     0.28600
H639        H  0.39821664  0.27018667  0.95965272     0.19200
H640        H  0.35775179  0.34625035  0.95641770     0.19200
C641        C  0.14914438  0.06998008  0.94420941    -0.06700
C642        C  0.17181063  0.10305053  0.94388916    -0.17800
C643        C  0.20632129  0.11526819  0.43786028     0.10500
C644        C  0.21510093  0.09152646  0.94233881    -0.06600
C645        C  0.19254381  0.05835702  0.94361588    -0.17800
C646        C  0.15964879  0.04735511  0.94522424     0.10600
S647        S  0.23519364  0.15807404  0.43768276    -0.32800
S648        S  0.13245353  0.00425905  0.94779473    -0.32800
H649        H  0.10528732  0.00599338  0.97264171     0.28600
H650        H  0.21392637  0.16828089  0.42407979     0.28600
H651        H  0.16640220  0.12194018  0.42949620     0.19200
H652        H  0.20065299  0.04104078  0.94286652     0.19200
C653        C  0.32818675  0.66417520  0.01895331     0.29500
C654        C  0.32859739  0.66389574  0.36313197     0.29500
C655        C  0.35651118  0.66460086  0.97070897    -0.06700
C656        C  0.30010917  0.63511516  0.97750070    -0.07500
C657        C  0.32728426  0.69200539  0.98472494    -0.07400
C658        C  0.35712991  0.66523532  0.39856137    -0.06700
C659        C  0.30083119  0.63455879  0.40236728    -0.07500
C660        C  0.32694390  0.69151596  0.41149732    -0.07400
C661        C  0.38003304  0.65752029  0.37308341    -0.32800
N662        N  0.39217694  0.65114944  0.42439666     0.13700
C663        C  0.37888305  0.65590991  0.98053508    -0.32800
H664        H  0.38479267  0.65236209  0.02873689     0.15700
C665        C  0.26954518  0.61409257  0.38523182    -0.31800
N666        N  0.24994310  0.60362744  0.94401072     0.12500
C667        C  0.26865880  0.61532641  0.99811988    -0.31700
C668        C  0.33299726  0.72183070  0.39862917    -0.32000
N669        N  0.33695587  0.74023942  0.95662075     0.13000
H670        H  0.33665325  0.73082968  0.34906954     0.15600
C671        C  0.33297721  0.72237495  0.00916133    -0.32000
H672        H  0.33693012  0.73197672  0.06125082     0.15600
H673        H  0.25947942  0.61246585  0.04985294     0.15600
H674        H  0.38582563  0.65413240  0.32002778     0.15700
H675        H  0.26060256  0.61029105  0.33542266     0.15600
C676        C  0.32904045  0.66443105  0.26936242     0.29500
C677        C  0.32827677  0.66461419  0.11323234     0.29500
C678        C  0.32770686  0.63540519  0.22034201    -0.06700
C679        C  0.30169528  0.66593279  0.23623649    -0.07500
C680        C  0.35759138  0.69256931  0.22902768    -0.07400
C681        C  0.32721005  0.63552170  0.14601564    -0.06700
C682        C  0.30107813  0.66591153  0.16235408    -0.07500
C683        C  0.35729479  0.69247006  0.15457532    -0.07400
C684        C  0.33842617  0.61539491  0.11814043    -0.32800
N685        N  0.34733261  0.60501120  0.16799450     0.13700
C686        C  0.33966890  0.61546385  0.22916873    -0.32800
H687        H  0.34510607  0.61100966  0.27687864     0.15700
C688        C  0.27075428  0.65958239  0.15120848    -0.31800
N689        N  0.25325613  0.65467509  0.21112108     0.12500
C690        C  0.27216759  0.65997859  0.26232304    -0.31700
C691        C  0.37760843  0.72416285  0.13963804    -0.32000
N692        N  0.38893235  0.74336715  0.19749735     0.13000
H693        H  0.38093125  0.73343934  0.09045875     0.15600
C694        C  0.37789700  0.72449451  0.25098479    -0.32000
H695        H  0.38147179  0.73402449  0.30324600     0.15600
H696        H  0.26380568  0.65630241  0.31460456     0.15600
H697        H  0.34211947  0.61038847  0.06487709     0.15700
H698        H  0.26096737  0.65580972  0.10232625     0.15600
N699        N  0.07299543  0.56047694  0.43301608    -0.06700
N700        N  0.09787349  0.56920408  0.47028178    -0.58800
N701        N  0.04613204  0.58230168  0.32259029    -0.06300
N702        N  0.05385898  0.60601774  0.28252919    -0.60900
N703        N  0.03943870  0.59116517  0.38403664    -0.05900
N704        N  0.04283180  0.62036573  0.38758690    -0.58800
N705        N  0.07872792  0.55000147  0.37263483    -0.05600
N706        N  0.10667649  0.55152065  0.36679375    -0.61300
C707        C  0.11834563  0.56324509  0.42852685     0.95500
C708        C  0.05173088  0.62945879  0.32370759     0.95300
N709        N  0.50604924  0.96477349  0.20864681    -0.06800
N710        N  0.48562447  0.96701017  0.25299857    -0.59400
N711        N  0.04836555  0.98579863  0.31596501    -0.05000
N712        N  0.07477378  0.98432556  0.31416585    -0.60600
N713        N  0.02302299  0.95665962  0.32434107    -0.06900
N714        N  0.03214476  0.93509938  0.32761711    -0.59600
N715        N  0.03459503  0.48951568  0.22258165    -0.04600
N716        N  0.02956444  0.51205872  0.25497731    -0.60700
Mn717      Mn  0.04419270  0.53227193  0.29995167     1.18400
C718        C  0.49676923  0.49522157  0.26572109     0.97600
C719        C  0.06456323  0.95290416  0.32239195     0.98300
N720        N  0.48018014  0.55359229  0.40919507    -0.06900
N721        N  0.47682911  0.57840704  0.39745404    -0.63200
N722        N  0.44933196  0.02870156  0.50475942    -0.05700
N723        N  0.45138043  0.00397027  0.00331243    -0.63900
N724        N  0.97785657  0.55806818  0.51087347    -0.06400
N725        N  0.00085595  0.55011222  0.00967966    -0.63500
N726        N  0.45150082  0.52658699  0.41076781    -0.05300
N727        N  0.42906001  0.53358749  0.40012790    -0.64200
Mn728      Mn  0.02371384  0.55899387  0.46307713     1.10700
C729        C  0.44522754  0.56603056  0.39178366     0.98800
C730        C  0.48229257  0.01791993  0.01629466     0.98900
N731        N  0.45177159  0.91927471  0.38749653    -0.06400
N732        N  0.44337567  0.88829730  0.38659343    -0.61800
N733        N  0.41571289  0.96087043  0.36539423    -0.05700
N734        N  0.38557700  0.95336558  0.36435390    -0.58500
N735        N  0.42401101  0.94680136  0.31265545    -0.07000
N736        N  0.39847192  0.92957607  0.27555535    -0.61300
N737        N  0.43705687  0.92745562  0.43718513    -0.06000
N738        N  0.41849679  0.90144775  0.47195448    -0.58500
Mn739      Mn  0.47474231  0.94931272  0.30621938     1.20200
Mn740      Mn  0.44428840  0.98049102  0.45317597     1.10100
Cl741      Cl  0.49781683  0.50407013  0.39059135    -0.86500
C742        C  0.42293009  0.87752678  0.44087564     0.95800
C743        C  0.37506851  0.93402959  0.30719323     0.95600
N744        N  0.06800990  0.56428000  0.20013825    -0.06700
N745        N  0.09330187  0.58407240  0.23673836    -0.58800
N746        N  0.05333973  0.57378653  0.06771980    -0.06300
N747        N  0.07221539  0.59906216  0.03166241    -0.60900
N748        N  0.03851044  0.58313277  0.11650700    -0.05900
N749        N  0.04676079  0.61379968  0.11310331    -0.58800
N750        N  0.07596228  0.54736620  0.15450011    -0.05600
N751        N  0.10582296  0.55507800  0.15893123    -0.61300
C752        C  0.11658957  0.57773560  0.21111006     0.95500
C753        C  0.06765964  0.62340541  0.05931427     0.95300
N754        N  0.50407781  0.96514474  0.95616914    -0.06800
N755        N  0.48641437  0.96782283  0.49864830    -0.59400
N756        N  0.04206297  0.97526885  0.07755250    -0.05000
N757        N  0.06327591  0.96635089  0.08418010    -0.60600
N758        N  0.01339139  0.94929300  0.07022085    -0.06900
N759        N  0.01479730  0.92273488  0.07265848    -0.59600
N760        N  0.03434272  0.49238221  0.96422360    -0.04600
N761        N  0.03344868  0.51468018  0.51032816    -0.60700
Mn762      Mn  0.04972294  0.52284052  0.06635725     1.18400
C763        C  0.50338478  0.50063270  0.51600660     0.97600
C764        C  0.04574844  0.93338512  0.08202198     0.98300
N765        N  0.47041241  0.54700121  0.15945368    -0.06900
N766        N  0.46245191  0.56889231  0.14789516    -0.63200
N767        N  0.44280402  0.02272923  0.25593203    -0.05700
N768        N  0.44995903  0.99977518  0.25517000    -0.63900
N769        N  0.96942653  0.54975061  0.25799607    -0.06400
N770        N  0.99394878  0.54504559  0.25605104    -0.63500
N771        N  0.44452413  0.51738997  0.15651041    -0.05300
N772        N  0.41974213  0.51950031  0.14223472    -0.64200
Mn773      Mn  0.01637468  0.55609435  0.20553634     1.10700
C774        C  0.43054912  0.55117295  0.13726594     0.98800
C775        C  0.48118335  0.01611061  0.26536467     0.98900
N776        N  0.44742610  0.91696847  0.12721075    -0.06400
N777        N  0.44404779  0.88778618  0.12496409    -0.61800
N778        N  0.41148190  0.95823801  0.12300328    -0.05700
N779        N  0.38223393  0.95329848  0.12454884    -0.58500
N780        N  0.42052554  0.95044021  0.06252937    -0.07000
N781        N  0.39670578  0.94108796  0.02156829    -0.61300
N782        N  0.43786874  0.92493888  0.18580993    -0.06000
N783        N  0.42797260  0.90055493  0.22561661    -0.58500
Mn784      Mn  0.46927132  0.94922375  0.05028269     1.20200
Mn785      Mn  0.44135975  0.97573191  0.20748875     1.10100
Cl786      Cl  0.49305778  0.49964818  0.14010682    -0.86500
C787        C  0.43213528  0.87784372  0.18720808     0.95800
C788        C  0.37354657  0.94342789  0.06038502     0.95600
C789        C  0.16387139  0.83842146  0.21718620     0.29500
C790        C  0.16347672  0.83863502  0.37357413     0.29500
C791        C  0.16567638  0.86790612  0.26496676    -0.06700
C792        C  0.13478369  0.81098501  0.25781317    -0.07500
C793        C  0.19089112  0.83662281  0.25197043    -0.07400
C794        C  0.16538712  0.86802112  0.33937753    -0.06700
C795        C  0.13455812  0.81121811  0.33193643    -0.07500
C796        C  0.19059466  0.83660969  0.32620050    -0.07400
C797        C  0.15588564  0.88992743  0.36487183    -0.32800
N798        N  0.15012616  0.90244112  0.31323659     0.13700
C799        C  0.15683940  0.89002362  0.25333101    -0.32800
H800        H  0.15244298  0.89443240  0.20435117     0.15700
C801        C  0.10974746  0.78138681  0.34890235    -0.31800
N802        N  0.09611066  0.76272637  0.29173969     0.12500
C803        C  0.11040073  0.78069194  0.23707870    -0.31700
C804        C  0.22099014  0.84445304  0.34048636    -0.32000
N805        N  0.23972287  0.85063181  0.28256876     0.13000
H806        H  0.22987836  0.84839624  0.39045834     0.15600
C807        C  0.22160121  0.84476614  0.22913573    -0.32000
H808        H  0.23092491  0.84892114  0.17766566     0.15600
H809        H  0.10536646  0.77115742  0.18504278     0.15600
H810        H  0.15072716  0.89437729  0.41764184     0.15700
H811        H  0.10395144  0.77257233  0.39911038     0.15600
C812        C  0.16354993  0.83849441  0.46734396     0.29500
C813        C  0.16383122  0.83835126  0.12343503     0.29500
C814        C  0.13560687  0.83819633  0.51554165    -0.06700
C815        C  0.16331688  0.80969818  0.50025932    -0.07500
C816        C  0.19172850  0.86705841  0.50918392    -0.07400
C817        C  0.13537433  0.83716004  0.08853237    -0.06700
C818        C  0.16476647  0.81023968  0.07568624    -0.07500
C819        C  0.19134750  0.86720268  0.08327782    -0.07400
C820        C  0.11327041  0.84596115  0.11379187    -0.32800
N821        N  0.10015942  0.85097818  0.56609723     0.13700
C822        C  0.11282954  0.84595826  0.50521183    -0.32800
H823        H  0.10789459  0.85076396  0.45732643     0.15700
C824        C  0.15512095  0.77910157  0.09000206    -0.31800
N825        N  0.14242599  0.75877935  0.52915842     0.12500
C826        C  0.15045467  0.77756109  0.47633380    -0.31700
C827        C  0.22239151  0.88787283  0.10020578    -0.32000
N828        N  0.24174607  0.89987429  0.54256080     0.13000
H829        H  0.23123040  0.89214718  0.15021356     0.15600
C830        C  0.22285976  0.88850428  0.48860930    -0.32000
H831        H  0.23191726  0.89299627  0.43666508     0.15600
H832        H  0.14481274  0.76804049  0.42454863     0.15600
H833        H  0.10855711  0.85108083  0.16652314     0.15700
H834        H  0.15017536  0.77033355  0.14007379     0.15600
C835        C  0.12779954  0.72511632  0.03102799    -0.06700
C836        C  0.14155193  0.70554706  0.02862804    -0.17800
C837        C  0.12270198  0.67225436  0.03735932     0.10500
C838        C  0.08906668  0.65794400  0.04632552    -0.06600
C839        C  0.07539381  0.67766172  0.04764302    -0.17800
C840        C  0.09442920  0.71107657  0.04035167     0.10600
S841        S  0.14364961  0.65074665  0.04435573    -0.32800
S842        S  0.07099350  0.73600224  0.55660633    -0.32800
H843        H  0.03956531  0.71110215  0.57061685     0.28600
H844        H  0.12352075  0.63113980  0.09591812     0.28600
H845        H  0.16730277  0.71669314  0.02360440     0.19200
H846        H  0.04977402  0.66691748  0.05588393     0.19200
C847        C  0.27492722  0.90883277  0.04036979    -0.06700
C848        C  0.28450643  0.88960746  0.06830309    -0.17800
C849        C  0.31665161  0.89915829  0.07065357     0.10500
C850        C  0.34009179  0.92817077  0.04248143    -0.06600
C851        C  0.33059254  0.94618877  0.00959566    -0.17800
C852        C  0.29836247  0.93778068  0.50267430     0.10600
S853        S  0.32622407  0.87406710  0.11330561    -0.32800
S854        S  0.28809771  0.96385441  0.46599643    -0.32800
H855        H  0.26224707  0.95817796  0.51207834     0.28600
H856        H  0.35541291  0.88276024  0.07713563     0.28600
H857        H  0.26673774  0.86708984  0.08911065     0.19200
H858        H  0.34850966  0.96864788  0.47730458     0.19200
C859        C  0.08722981  0.87193501  0.06842538    -0.06700
C860        C  0.05368692  0.85757147  0.59257007    -0.17800
C861        C  0.03991563  0.87726944  0.08271170     0.10500
C862        C  0.05930072  0.91153748  0.07958241    -0.06600
C863        C  0.09260630  0.92529435  0.07200146    -0.17800
C864        C  0.10670537  0.90585102  0.06670997     0.10600
S865        S  0.99679967  0.85726839  0.62086763    -0.32800
S866        S  0.14960018  0.92427056  0.05816445    -0.32800
H867        H  0.15663373  0.95673016  0.06329489     0.28600
H868        H  0.99106788  0.82520438  0.09526221     0.28600
H869        H  0.03956748  0.83161366  0.59685908     0.19200
H870        H  0.10763371  0.95127955  0.06957220     0.19200
C871        C  0.07968077  0.72773969  0.28859791    -0.06700
C872        C  0.09352721  0.71176952  0.24798817    -0.17800
C873        C  0.08431711  0.67943670  0.25636675     0.10500
C874        C  0.05966112  0.66195587  0.30462235    -0.06600
C875        C  0.04422333  0.67728263  0.34177359    -0.17800
C876        C  0.05396223  0.70981685  0.33438382     0.10600
S877        S  0.10714450  0.66262124  0.21153907    -0.32800
S878        S  0.03348577  0.72752594  0.38635308    -0.32800
H879        H  0.04183949  0.75281105  0.34449165     0.28600
H880        H  0.13143429  0.69128233  0.18387317     0.28600
H881        H  0.11355162  0.72560387  0.21361705     0.19200
H882        H  0.02504979  0.66412916  0.37866110     0.19200
C883        C  0.27396627  0.87110633  0.28192301    -0.06700
C884        C  0.29315776  0.85764624  0.28863695    -0.17800
C885        C  0.32618811  0.87748470  0.29619587     0.10500
C886        C  0.34060766  0.91167748  0.29626441    -0.06600
C887        C  0.32137732  0.92506487  0.28880798    -0.17800
C888        C  0.28831063  0.90517147  0.28152280     0.10600
S889        S  0.34817935  0.85774750  0.30947450    -0.32800
S890        S  0.26418039  0.92346957  0.27558854    -0.32800
H891        H  0.28965458  0.95504147  0.26574253     0.28600
H892        H  0.36773182  0.88143049  0.35842369     0.28600
H893        H  0.28211774  0.83159858  0.29021992     0.19200
H894        H  0.33226911  0.95119466  0.28975580     0.19200
C895        C  0.08669569  0.94008570  0.32268716    -0.06700
C896        C  0.11576109  0.95476597  0.28392653    -0.17800
C897        C  0.13781034  0.94403332  0.28311296     0.10500
C898        C  0.13044383  0.91726944  0.31984988    -0.06600
C899        C  0.10168830  0.90301294  0.35945986    -0.17800
C900        C  0.08025690  0.91453717  0.36242470     0.10600
S901        S  0.17546328  0.96615582  0.23668098    -0.32800
S902        S  0.04601945  0.89677182  0.42059220    -0.32800
H903        H  0.04859550  0.92669107  0.44479668     0.28600
H904        H  0.19296271  0.95934472  0.27802128     0.28600
H905        H  0.12152060  0.97496845  0.25444942     0.19200
H906        H  0.09578457  0.88258880  0.38818554     0.17000
C907        C  0.36838918  0.59202933  0.15773863    -0.06700
C908        C  0.35541542  0.55882898  0.16050616    -0.17800
C909        C  0.37463511  0.54462156  0.15238583     0.10500
C910        C  0.40841216  0.56444538  0.14091703    -0.06600
C911        C  0.42120357  0.59791051  0.13621050    -0.17800
C912        C  0.40167809  0.61191353  0.14506874     0.10600
S913        S  0.35440133  0.50115196  0.15827293    -0.32800
S914        S  0.42079839  0.65525932  0.14057404    -0.32800
H915        H  0.39884307  0.66000859  0.18411786     0.28600
H916        H  0.32569631  0.49723294  0.19029082     0.28600
H917        H  0.32984795  0.54403595  0.16921793     0.19200
H918        H  0.44668115  0.61343057  0.12698235     0.19200
C919        C  0.39887494  0.77741434  0.20298041    -0.06700
C920        C  0.37967390  0.78704263  0.17565294    -0.17800
C921        C  0.38909821  0.81979396  0.17416030     0.10500
C922        C  0.41785038  0.84368840  0.20276861    -0.06600
C923        C  0.43570870  0.83417771  0.23588941    -0.17800
C924        C  0.42675937  0.80126138  0.23537157     0.10600
S925        S  0.36472760  0.83097529  0.13404602    -0.32800
S926        S  0.45273245  0.79133443  0.27265375    -0.32800
H927        H  0.44678203  0.76461350  0.22656382     0.28600
H928        H  0.34150401  0.79940958  0.11160470     0.28600
H929        H  0.35741042  0.76865662  0.15432746     0.19200
H930        H  0.45785885  0.85255486  0.25810247     0.19200
C931        C  0.15140796  0.59704644  0.22434822    -0.06700
C932        C  0.17029326  0.58406336  0.19437706    -0.17800
C933        C  0.20360240  0.60217493  0.19285191     0.10500
C934        C  0.21896482  0.63505675  0.21719453    -0.06600
C935        C  0.20061257  0.64735441  0.25307695    -0.17800
C936        C  0.16706241  0.62825314  0.25924177     0.10600
S937        S  0.22633306  0.58246149  0.16422794    -0.32800
S938        S  0.14633591  0.64461535  0.31440854    -0.32800
H939        H  0.12471923  0.61508155  0.34251670     0.28600
H940        H  0.20027775  0.55085990  0.15358699     0.28600
H941        H  0.15887604  0.55941283  0.17161180     0.19200
H942        H  0.21257240  0.67172019  0.27733451     0.19200
C943        C  0.43068171  0.58730215  0.39995003    -0.06700
C944        C  0.44722320  0.61800349  0.43573973    -0.17800
C945        C  0.43530920  0.63952240  0.44420435     0.10500
C946        C  0.40634270  0.63071838  0.41545684    -0.06600
C947        C  0.38955332  0.59995122  0.38082101    -0.17800
C948        C  0.40114172  0.57823440  0.37335260     0.10600
S949        S  0.45812409  0.67775663  0.49202867    -0.32800
S950        S  0.37709628  0.53940783  0.32933991    -0.32800
H951        H  0.40277785  0.54168646  0.28681487     0.28600
H952        H  0.44719901  0.69494816  0.46042664     0.28600
H953        H  0.46960539  0.62532654  0.45791978     0.19200
H954        H  0.36281959  0.58852578  0.86458272     0.19200
C955        C  0.35845211  0.77533388  0.45995365    -0.06700
C956        C  0.39151159  0.78824634  0.46169627    -0.17800
C957        C  0.41299486  0.82143366  0.45689778     0.10500
C958        C  0.40130377  0.84266713  0.45159637    -0.06600
C959        C  0.36809973  0.82990561  0.45235487    -0.17800
C960        C  0.34660126  0.79642365  0.45476570     0.10600
S961        S  0.45494113  0.83488269  0.45714939    -0.32800
S962        S  0.30187623  0.78058860  0.95214557    -0.32800
H963        H  0.29063344  0.74835495  0.96626171     0.28600
H964        H  0.46484899  0.86668149  0.48464689     0.28600
H965        H  0.40061342  0.77198031  0.46494096     0.19200
H966        H  0.35884472  0.84599507  0.44885341     0.19200
C967        C  0.15151231  0.57328550  0.44288187    -0.06700
C968        C  0.17491810  0.60599826  0.43882680    -0.17800
C969        C  0.20569092  0.61531545  0.95145009     0.10500
C970        C  0.21703732  0.59335395  0.44577223    -0.06600
C971        C  0.19371684  0.56059045  0.45062739    -0.17800
C972        C  0.16104560  0.55039544  0.45005140     0.10600
S973        S  0.23386650  0.65837095  0.95896842    -0.32800
S974        S  0.13267071  0.50780772  0.45665636    -0.32800
H975        H  0.10738854  0.51192377  0.48616731     0.28600
H976        H  0.21153852  0.66873710  0.95842007     0.28600
H977        H  0.16522256  0.62134824  0.94355989     0.19200
H978        H  0.20104625  0.54294198  0.45417170     0.19200
C979        C  0.32787528  0.66376281  0.51948709     0.29500
C980        C  0.32768805  0.66346933  0.86265539     0.29500
C981        C  0.35667665  0.66492525  0.47269870    -0.06700
C982        C  0.30040255  0.63461670  0.47695142    -0.07500
C983        C  0.32693399  0.69169147  0.48557093    -0.07400
C984        C  0.35607915  0.66427997  0.89657452    -0.06700
C985        C  0.29997193  0.63468844  0.90295461    -0.07500
C986        C  0.32702628  0.69160429  0.91070248    -0.07400
C987        C  0.37771189  0.65517591  0.86936653    -0.32800
N988        N  0.39041102  0.64906425  0.91976576     0.13700
C989        C  0.37908792  0.65661281  0.48439124    -0.32800
H990        H  0.38346322  0.65180464  0.53286035     0.15700
C991        C  0.26860268  0.61431906  0.88672555    -0.31800
N992        N  0.25044637  0.60323031  0.44203189     0.12500
C993        C  0.26883424  0.61462023  0.49664187    -0.31700
C994        C  0.33247176  0.72163083  0.89754583    -0.32000
N995        N  0.33824463  0.74064138  0.45759029     0.13000
H996        H  0.33623619  0.73061333  0.84786289     0.15600
C997        C  0.33389823  0.72252491  0.50997957    -0.32000
H998        H  0.33862362  0.73216597  0.56193160     0.15600
H999        H  0.25929258  0.61158752  0.54830244     0.15600
H1000       H  0.38221198  0.65075800  0.81614402     0.15700
H1001       H  0.25932871  0.61034868  0.83719129     0.15600
C1002       C  0.32788060  0.66361993  0.76925950     0.29500
C1003       C  0.32757014  0.66367321  0.61343966     0.29500
C1004       C  0.32530055  0.63387034  0.72085455    -0.06700
C1005       C  0.30119883  0.66620954  0.73609334    -0.07500
C1006       C  0.35706622  0.69107002  0.72886989    -0.07400
C1007       C  0.32524946  0.63399270  0.64660998    -0.06700
C1008       C  0.30076348  0.66604189  0.66208201    -0.07500
C1009       C  0.35700549  0.69082912  0.65454057    -0.07400
C1010       C  0.33454025  0.61212315  0.61961462    -0.32800
N1011       N  0.34106515  0.59985817  0.67024274     0.13700
C1012       C  0.33445113  0.61174086  0.73091674    -0.32800
H1013       H  0.33918997  0.60699039  0.77904620     0.15700
C1014       C  0.27025657  0.65903251  0.65041455    -0.31800
N1015       N  0.25266959  0.65431248  0.71014372     0.12500
C1016       C  0.27148781  0.65996832  0.76180239    -0.31700
C1017       C  0.37864152  0.72210730  0.63880209    -0.32000
N1018       N  0.39044642  0.74144999  0.69636341     0.13000
H1019       H  0.38227854  0.73122508  0.58936875     0.15600
C1020       C  0.37823974  0.72285282  0.75035517    -0.32000
H1021       H  0.38151069  0.73264766  0.80252120     0.15600
H1022       H  0.26293429  0.65632833  0.81415533     0.15600
H1023       H  0.33956441  0.60791419  0.56645907     0.15700
H1024       H  0.26044068  0.65465714  0.60131535     0.15600
N1025       N  0.07258343  0.55904687  0.93243869    -0.06700
N1026       N  0.09723988  0.56716052  0.96986046    -0.58800
N1027       N  0.04540540  0.58068694  0.82110047    -0.06300
N1028       N  0.05338470  0.60468690  0.78145420    -0.60900
N1029       N  0.03910478  0.58967243  0.88279418    -0.05900
N1030       N  0.04307414  0.61911341  0.88688613    -0.58800
N1031       N  0.07826585  0.54862981  0.87197506    -0.05600
N1032       N  0.10592764  0.54951701  0.86640415    -0.61300
C1033       C  0.11748450  0.56085197  0.92830986     0.95500
C1034       C  0.05183148  0.62833307  0.82312221     0.95300
N1035       N  0.50506770  0.95885795  0.71688607    -0.06800
N1036       N  0.48266167  0.96156143  0.75377668    -0.59400
N1037       N  0.04637013  0.98471751  0.81935004    -0.05000
N1038       N  0.07250524  0.98269417  0.81894402    -0.60600
N1039       N  0.02074408  0.95573561  0.82813374    -0.06900
N1040       N  0.02949236  0.93391660  0.83271430    -0.59600
N1041       N  0.03204282  0.48819976  0.71784520    -0.04600
N1042       N  0.02778789  0.51041296  0.75392006    -0.60700
Mn1043     Mn  0.04372286  0.53029898  0.79910127     1.18400
C1044       C  0.49655490  0.49473109  0.76468905     0.97600
C1045       C  0.06199549  0.95121102  0.82823019     0.98300
N1046       N  0.47924802  0.55270550  0.90638406    -0.06900
N1047       N  0.47586207  0.57732262  0.89323945    -0.63200
N1048       N  0.44694207  0.02888545  0.00357635    -0.05700
N1049       N  0.45423381  0.00407114  0.50380750    -0.63900
N1050       N  0.97807777  0.55719605  0.01123917    -0.06400
N1051       N  0.00088283  0.55137760  0.50977538    -0.63500
N1052       N  0.45052980  0.52578065  0.90837257    -0.05300
N1053       N  0.42809957  0.53258793  0.89666588    -0.64200
Mn1054     Mn  0.02357637  0.55786113  0.96224197     1.10700
C1055       C  0.44425645  0.56485235  0.88703768     0.98800
C1056       C  0.48516669  0.01830703  0.51657156     0.98900
N1057       N  0.44866143  0.91840879  0.89288328    -0.06400
N1058       N  0.44028667  0.88756577  0.89318698    -0.61800
N1059       N  0.41275303  0.95851093  0.86553262    -0.05700
N1060       N  0.38257600  0.95051545  0.86317011    -0.58500
N1061       N  0.42123651  0.94366428  0.81467802    -0.07000
N1062       N  0.39606351  0.92545353  0.77736407    -0.61300
N1063       N  0.43362397  0.92691724  0.94122296    -0.06000
N1064       N  0.41466216  0.90111941  0.97626685    -0.58500
Mn1065     Mn  0.47139253  0.94704105  0.81049177     1.20200
Mn1066     Mn  0.44119003  0.98003337  0.95396046     1.10100
Cl1067     Cl  0.49600695  0.50473384  0.88992030    -0.86500
C1068       C  0.41942252  0.87715877  0.94671118     0.95800
C1069       C  0.37245989  0.93007428  0.80726210     0.95600
N1070       N  0.06744224  0.56325758  0.70161125    -0.06700
N1071       N  0.09275635  0.58294672  0.73820514    -0.58800
N1072       N  0.05246715  0.57397196  0.57007588    -0.06300
N1073       N  0.06931963  0.59865803  0.53142369    -0.60900
N1074       N  0.03751874  0.58300627  0.61916598    -0.05900
N1075       N  0.04377778  0.61295107  0.61342887    -0.58800
N1076       N  0.07544347  0.54653368  0.65565195    -0.05600
N1077       N  0.10532668  0.55424270  0.65987346    -0.61300
C1078       C  0.11606095  0.57675957  0.71226983     0.95500
C1079       C  0.06357553  0.62243931  0.55771056     0.95300
N1080       N  0.50717075  0.96557290  0.45573546    -0.06800
N1081       N  0.48383036  0.96758070  0.00038152    -0.59400
N1082       N  0.04185925  0.97403937  0.58284679    -0.05000
N1083       N  0.06251271  0.96526118  0.59517415    -0.60600
N1084       N  0.01325655  0.94801763  0.57528704    -0.06900
N1085       N  0.01410198  0.92155969  0.58297138    -0.59600
N1086       N  0.03485199  0.49409893  0.46398232    -0.04600
N1087       N  0.03298518  0.51329145  0.00971898    -0.60700
Mn1088     Mn  0.04953689  0.52313671  0.56714675     1.18400
C1089       C  0.50160283  0.50048479  0.01552153     0.97600
C1090       C  0.04470814  0.93240093  0.59602331     0.98300
N1091       N  0.46786109  0.54567124  0.65929147    -0.06900
N1092       N  0.45874311  0.56685466  0.64908089    -0.63200
N1093       N  0.43938837  0.01760597  0.75273371    -0.05700
N1094       N  0.44631686  0.99437620  0.74992211    -0.63900
N1095       N  0.96827578  0.54864498  0.75975161    -0.06400
N1096       N  0.99259042  0.54367883  0.75837551    -0.63500
N1097       N  0.44241870  0.51568587  0.65652039    -0.05300
N1098       N  0.41691683  0.51689182  0.64363778    -0.64200
Mn1099     Mn  0.01570267  0.55528817  0.70792775     1.10700
C1100       C  0.42671483  0.54839824  0.63957643     0.98800
C1101       C  0.47727750  0.01035724  0.76254017     0.98900
N1102       N  0.44710949  0.91469242  0.62348044    -0.06400
N1103       N  0.44582761  0.88650439  0.62280465    -0.61800
N1104       N  0.41098485  0.95622707  0.61479961    -0.05700
N1105       N  0.38232412  0.95252928  0.61409936    -0.58500
N1106       N  0.42074226  0.94875450  0.55495319    -0.07000
N1107       N  0.39760098  0.94023838  0.51227614    -0.61300
N1108       N  0.43569183  0.92164361  0.68087242    -0.06000
N1109       N  0.42635944  0.89751139  0.72101104    -0.58500
Mn1110     Mn  0.47002512  0.94767931  0.54685601     1.20200
Mn1111     Mn  0.43868414  0.97163356  0.70194454     1.10100
Cl1112     Cl  0.49345426  0.49928621  0.64009978    -0.86500
C1113       C  0.43324897  0.87612183  0.68450274     0.95800
C1114       C  0.37444857  0.94358330  0.54937791     0.95600
C1115       C  0.16340114  0.83801522  0.71770396     0.29500
C1116       C  0.16353660  0.83805239  0.87382447     0.29500
C1117       C  0.16610109  0.86796004  0.76583410    -0.06700
C1118       C  0.13394112  0.81096974  0.75904106    -0.07500
C1119       C  0.18989171  0.83514571  0.75175879    -0.07400
C1120       C  0.16612192  0.86796716  0.84030829    -0.06700
C1121       C  0.13417487  0.81122590  0.83319896    -0.07500
C1122       C  0.18971404  0.83487464  0.82576252    -0.07400
C1123       C  0.15569502  0.88913029  0.86664907    -0.32800
N1124       N  0.14891371  0.90115722  0.81583158     0.13700
C1125       C  0.15589142  0.88928038  0.75548821    -0.32800
H1126       H  0.15059713  0.89330229  0.70714712     0.15700
C1127       C  0.11053431  0.78102750  0.85069174    -0.31800
N1128       N  0.09662946  0.76221271  0.79402141     0.12500
C1129       C  0.10986951  0.78027048  0.73917888    -0.31700
C1130       C  0.21936621  0.84061430  0.83952428    -0.32000
N1131       N  0.23785888  0.84620207  0.78136881     0.13000
H1132       H  0.22825153  0.84426678  0.88942869     0.15600
C1133       C  0.22007869  0.84178617  0.72822894    -0.32000
H1134       H  0.22958613  0.84657141  0.67693623     0.15600
H1135       H  0.10419633  0.77061403  0.68745650     0.15600
H1136       H  0.15061527  0.89336809  0.91961685     0.15700
H1137       H  0.10615486  0.77210348  0.90057872     0.15600
C1138       C  0.16379533  0.83769024  0.96722564     0.29500
C1139       C  0.16376018  0.83815598  0.62362842     0.29500
C1140       C  0.13541029  0.83676025  0.01426474    -0.06700
C1141       C  0.16441079  0.80958322  0.00123269    -0.07500
C1142       C  0.19157349  0.86683599  0.00881245    -0.07400
C1143       C  0.13562734  0.83775291  0.58957166    -0.06700
C1144       C  0.16353607  0.80967419  0.57481791    -0.07500
C1145       C  0.19180642  0.86688206  0.58333487    -0.07400
C1146       C  0.11245798  0.84453194  0.61669137    -0.32800
N1147       N  0.10098938  0.85148330  0.06163195     0.13700
C1148       C  0.11306373  0.84472539  0.00189467    -0.32800
H1149       H  0.10806240  0.84853244  0.95290459     0.15700
C1150       C  0.15100066  0.77773720  0.58777993    -0.31800
N1151       N  0.14795780  0.75967695  0.03185281     0.12500
C1152       C  0.15383067  0.77762838  0.97830314    -0.31700
C1153       C  0.22302963  0.88796029  0.59962654    -0.32000
N1154       N  0.24146176  0.89853368  0.04338769     0.13000
H1155       H  0.23228596  0.89164077  0.64904023     0.15600
C1156       C  0.22312083  0.88689483  0.98860203    -0.32000
H1157       H  0.23269214  0.89008084  0.93690723     0.15600
H1158       H  0.14773053  0.76739989  0.92693225     0.15600
H1159       H  0.10735175  0.84823590  0.67006130     0.15700
H1160       H  0.14586383  0.76844779  0.63731525     0.15600
C1161       C  0.12162569  0.72426939  0.52628498    -0.06700
C1162       C  0.13493275  0.70434434  0.51410100    -0.17800
C1163       C  0.11646822  0.67095465  0.52210109     0.10500
C1164       C  0.08351511  0.65692945  0.54121764    -0.06600
C1165       C  0.06988761  0.67693621  0.55017944    -0.17800
C1166       C  0.08867638  0.71049741  0.54291828     0.10600
S1167       S  0.13680322  0.64815447  0.51763692    -0.32800
S1168       S  0.07631281  0.73611720  0.04620667    -0.32800
H1169       H  0.04459066  0.71045987  0.04158495     0.28600
H1170       H  0.16556160  0.67142201  0.48674326     0.28600
H1171       H  0.16036274  0.71554048  0.50266494     0.19200
H1172       H  0.04472702  0.66635824  0.56456368     0.19200
C1173       C  0.27542396  0.91035060  0.53719490    -0.06700
C1174       C  0.28550445  0.89148991  0.56498105    -0.17800
C1175       C  0.31772330  0.90042614  0.56336748     0.10500
C1176       C  0.34079106  0.92850526  0.53177408    -0.06600
C1177       C  0.33078777  0.94643933  0.49984427    -0.17800
C1178       C  0.29824804  0.93714341  0.00951200     0.10600
S1179       S  0.32951300  0.87655051  0.60453878    -0.32800
S1180       S  0.28840024  0.96386608  0.97437030    -0.32800
H1181       H  0.26141250  0.95671470  0.01788875     0.28600
H1182       H  0.29934538  0.85564316  0.63429632     0.28600
H1183       H  0.26793978  0.86972239  0.58858105     0.19200
H1184       H  0.34856588  0.96882648  0.98900031     0.19200
C1185       C  0.08637166  0.87137186  0.57685556    -0.06700
C1186       C  0.05424721  0.85801749  0.07668463    -0.17800
C1187       C  0.03927119  0.87680451  0.60129420     0.10500
C1188       C  0.05829984  0.91078471  0.59434757    -0.06600
C1189       C  0.09125642  0.92443811  0.58085630    -0.17800
C1190       C  0.10543891  0.90525314  0.57224782     0.10600
S1191       S  0.99701591  0.85714832  0.09523015    -0.32800
S1192       S  0.14793714  0.92560327  0.55359153    -0.32800
H1193       H  0.15402286  0.90559257  0.58852299     0.28600
H1194       H  0.99127713  0.82570169  0.62505081     0.28600
H1195       H  0.03988343  0.83193080  0.07834793     0.19200
H1196       H  0.10618331  0.95026425  0.57536994     0.19200
C1197       C  0.08049778  0.72724896  0.79113910    -0.06700
C1198       C  0.09380543  0.71119418  0.74885979    -0.17800
C1199       C  0.08395572  0.67846392  0.75511122     0.10500
C1200       C  0.06007707  0.66113644  0.80499263    -0.06600
C1201       C  0.04550244  0.67680094  0.84452969    -0.17800
C1202       C  0.05519719  0.70935648  0.83768307     0.10600
S1203       S  0.10436853  0.66056066  0.70348933    -0.32800
S1204       S  0.03482546  0.72699204  0.89041398    -0.32800
H1205       H  0.04286793  0.75229565  0.84885865     0.28600
H1206       H  0.12657799  0.68833149  0.66995657     0.28600
H1207       H  0.11350032  0.72504005  0.71391003     0.19200
H1208       H  0.02675590  0.66375314  0.88225686     0.19200
C1209       C  0.27193600  0.86680874  0.78124330    -0.06700
C1210       C  0.29136337  0.85339200  0.78545272    -0.17800
C1211       C  0.32427302  0.87336993  0.79367290     0.10500
C1212       C  0.33821750  0.90757014  0.79616884    -0.06600
C1213       C  0.31866824  0.92088203  0.79192973    -0.17800
C1214       C  0.28570579  0.90088427  0.78486009     0.10600
S1215       S  0.34656025  0.85378688  0.80587886    -0.32800
S1216       S  0.26088578  0.91887563  0.78440072    -0.32800
H1217       H  0.28567041  0.95145906  0.78730312     0.28600
H1218       H  0.36536733  0.87682797  0.85658579     0.28600
H1219       H  0.28057849  0.82728190  0.78492578     0.19200
H1220       H  0.32926286  0.94703254  0.79526577     0.19200
C1221       C  0.08406468  0.93778735  0.82787965    -0.06700
C1222       C  0.11532386  0.95561620  0.79876304    -0.17800
C1223       C  0.13744893  0.94485519  0.79741706     0.10500
C1224       C  0.12832804  0.91503776  0.82359391    -0.06600
C1225       C  0.09739006  0.89727019  0.85321749    -0.17800
C1226       C  0.07551794  0.90843229  0.85658221     0.10600
S1227       S  0.17735393  0.97051563  0.76341715    -0.32800
S1228       S  0.03757633  0.88438896  0.89996696    -0.32800
H1229       H  0.03761050  0.91122903  0.93663159     0.28600
H1230       H  0.19226932  0.95994797  0.80326017     0.28600
H1231       H  0.12284467  0.97841495  0.77744229     0.19200
H1232       H  0.09017354  0.87434849  0.87358062     0.17000
C1233       C  0.36224643  0.58691254  0.66147119    -0.06700
C1234       C  0.34971973  0.55349928  0.65886768    -0.17800
C1235       C  0.36972262  0.54003521  0.65174817     0.10500
C1236       C  0.40368518  0.56082372  0.64586935    -0.06600
C1237       C  0.41591517  0.59451619  0.64860164    -0.17800
C1238       C  0.39560819  0.60766098  0.65710283     0.10600
S1239       S  0.35051757  0.49644036  0.65422432    -0.32800
S1240       S  0.41224538  0.65108858  0.66368212    -0.32800
H1241       H  0.44411055  0.65931758  0.66961293     0.28600
H1242       H  0.31887063  0.48895005  0.64834312     0.28600
H1243       H  0.32404566  0.53806052  0.66379105     0.19200
H1244       H  0.44149098  0.61067137  0.64466160     0.19200
C1245       C  0.40100362  0.77565644  0.70072768    -0.06700
C1246       C  0.38160150  0.78524665  0.67413935    -0.17800
C1247       C  0.39098506  0.81792003  0.67176076     0.10500
C1248       C  0.41991219  0.84196256  0.69922932    -0.06600
C1249       C  0.43849244  0.83266508  0.73053883    -0.17800
C1250       C  0.42953609  0.79971912  0.73098860     0.10600
S1251       S  0.36640661  0.82885144  0.63140836    -0.32800
S1252       S  0.45615052  0.79040107  0.76793172    -0.32800
H1253       H  0.44428267  0.75875855  0.73774129     0.28600
H1254       H  0.34289899  0.79713000  0.61063635     0.28600
H1255       H  0.35899247  0.76678714  0.65437070     0.19200
H1256       H  0.46094224  0.85121512  0.75136994     0.19200
C1257       C  0.15087386  0.59650967  0.72472378    -0.06700
C1258       C  0.16977651  0.58323864  0.69676812    -0.17800
C1259       C  0.20298461  0.60163296  0.69395428     0.10500
C1260       C  0.21839749  0.63478544  0.71608779    -0.06600
C1261       C  0.20002813  0.64766373  0.74922398    -0.17800
C1262       C  0.16650091  0.62852550  0.75599635     0.10600
S1263       S  0.22484234  0.58123368  0.66548109    -0.32800
S1264       S  0.14571921  0.64595976  0.80728543    -0.32800
H1265       H  0.12540878  0.61760635  0.84095397     0.28600
H1266       H  0.23130891  0.57982157  0.73225123     0.28600
H1267       H  0.15861565  0.55816640  0.67647740     0.19200
H1268       H  0.21193665  0.67249847  0.77085789     0.19200
C1269       C  0.42966104  0.58600707  0.89290481    -0.06700
C1270       C  0.44744484  0.61795521  0.92243029    -0.17800
C1271       C  0.43521190  0.63912285  0.93138481     0.10500
C1272       C  0.40453161  0.62865556  0.90991390    -0.06600
C1273       C  0.38662637  0.59685439  0.88045459    -0.17800
C1274       C  0.39870832  0.57551976  0.87183604     0.10600
S1275       S  0.45972361  0.67906097  0.97113443    -0.32800
S1276       S  0.37350781  0.53552429  0.83327119    -0.32800
H1277       H  0.39807242  0.53591808  0.78944706     0.28600
H1278       H  0.44599696  0.69434282  0.94217528     0.28600
H1279       H  0.47104616  0.62654538  0.93987235     0.19200
H1280       H  0.36684343  0.59259131  0.36027100     0.19200
C1281       C  0.35654586  0.77489965  0.95975611    -0.06700
C1282       C  0.38963141  0.78828238  0.96178521    -0.17800
C1283       C  0.41048683  0.82166539  0.96049406     0.10500
C1284       C  0.39812105  0.84245050  0.95732218    -0.06600
C1285       C  0.36487526  0.82919549  0.95723560    -0.17800
C1286       C  0.34395511  0.79554296  0.95734089     0.10600
S1287       S  0.45260541  0.83614530  0.96277355    -0.32800
S1288       S  0.30471981  0.78231833  0.44897622    -0.32800
H1289       H  0.29272401  0.74975691  0.46154507     0.28600
H1290       H  0.46078750  0.86654211  0.99642461     0.28600
H1291       H  0.39921429  0.77230122  0.96327595     0.19200
H1292       H  0.35519616  0.84501175  0.95482453     0.19200
C1293       C  0.15061953  0.57097204  0.94277292    -0.06700
C1294       C  0.17308514  0.60418816  0.94712111    -0.17800
C1295       C  0.20739136  0.61639445  0.44237592     0.10500
C1296       C  0.21634733  0.59273845  0.94817392    -0.06600
C1297       C  0.19396016  0.55947046  0.94442099    -0.17800
C1298       C  0.16118175  0.54835482  0.94258469     0.10600
S1299       S  0.23648886  0.65918506  0.44337105    -0.32800
S1300       S  0.13413596  0.50510063  0.93875146    -0.32800
H1301       H  0.10742543  0.50637368  0.96912070     0.28600
H1302       H  0.21536062  0.66983970  0.43158120     0.28600
H1303       H  0.16785406  0.62324205  0.43033299     0.19200
H1304       H  0.20215412  0.54215899  0.94213873     0.19200
C1305       C  0.82680626  0.16519355  0.02753910     0.29500
C1306       C  0.82715476  0.16491525  0.37140187     0.29500
C1307       C  0.85543939  0.16620271  0.97981251    -0.06700
C1308       C  0.79900312  0.13598730  0.98535127    -0.07500
C1309       C  0.82562583  0.19294863  0.99382073    -0.07400
C1310       C  0.85601573  0.16683270  0.40633529    -0.06700
C1311       C  0.79992618  0.13545500  0.41096361    -0.07500
C1312       C  0.82513488  0.19234003  0.41957758    -0.07400
C1313       C  0.87812786  0.15819302  0.38004491    -0.32800
N1314       N  0.89047945  0.15182791  0.43078267     0.13700
C1315       C  0.87792315  0.15770838  0.99007221    -0.32800
H1316       H  0.88295387  0.15321953  0.03797224     0.15700
C1317       C  0.76876132  0.11430560  0.39423678    -0.31800
N1318       N  0.74893880  0.10458932  0.95001283     0.12500
C1319       C  0.76727190  0.11632042  0.00484196    -0.31700
C1320       C  0.83147197  0.22263380  0.40609918    -0.32000
N1321       N  0.83733533  0.24184682  0.96577313     0.13000
H1322       H  0.83555806  0.23150652  0.35624477     0.15600
C1323       C  0.83282644  0.22379476  0.01824571    -0.32000
H1324       H  0.83773098  0.23360305  0.07027702     0.15600
H1325       H  0.75773749  0.11382340  0.05597348     0.15600
H1326       H  0.88312431  0.15410131  0.32687124     0.15700
H1327       H  0.75952545  0.11054569  0.34460619     0.15600
C1328       C  0.82746126  0.16533261  0.27767715     0.29500
C1329       C  0.82703299  0.16566542  0.12170824     0.29500
C1330       C  0.82480525  0.13568445  0.22895707    -0.06700
C1331       C  0.80090412  0.16822506  0.24455281    -0.07500
C1332       C  0.85672275  0.19272790  0.23727337    -0.07400
C1333       C  0.82445814  0.13590168  0.15458723    -0.06700
C1334       C  0.80063224  0.16842461  0.17050347    -0.07500
C1335       C  0.85660883  0.19268501  0.16277934    -0.07400
C1336       C  0.83530775  0.11549959  0.12681399    -0.32800
N1337       N  0.84368972  0.10465166  0.17669116     0.13700
C1338       C  0.83614575  0.11521219  0.23787054    -0.32800
H1339       H  0.84167120  0.11083501  0.28554224     0.15700
C1340       C  0.77022739  0.16117896  0.15824836    -0.31800
N1341       N  0.75220232  0.15518519  0.21730287     0.12500
C1342       C  0.77075579  0.16079104  0.26947298    -0.31700
C1343       C  0.87755379  0.22424511  0.14780448    -0.32000
N1344       N  0.88908696  0.24332810  0.20563955     0.13000
H1345       H  0.88100521  0.23364131  0.09868363     0.15600
C1346       C  0.87747422  0.22451600  0.25919457    -0.32000
H1347       H  0.88075636  0.23411833  0.31148126     0.15600
H1348       H  0.76177496  0.15583375  0.32097630     0.15600
H1349       H  0.83965540  0.11108422  0.07355350     0.15700
H1350       H  0.76074734  0.15731108  0.10891380     0.15600
N1351       N  0.57347410  0.06108437  0.43429704    -0.06700
N1352       N  0.59762153  0.06982261  0.47391258    -0.58800
N1353       N  0.54664283  0.08014307  0.31497667    -0.06300
N1354       N  0.55443298  0.10396054  0.27480733    -0.60900
N1355       N  0.53897279  0.08900937  0.37575375    -0.05900
N1356       N  0.54187804  0.11800734  0.37820435    -0.58800
N1357       N  0.58056374  0.05145284  0.37465854    -0.05600
N1358       N  0.60860960  0.05326099  0.37154180    -0.61300
C1359       C  0.61906493  0.06476893  0.43410759     0.95500
C1360       C  0.55131643  0.12715516  0.31459908     0.95300
N1361       N  0.00746473  0.46126012  0.22274858    -0.06800
N1362       N  0.98493234  0.46439845  0.25835105    -0.59400
N1363       N  0.54873333  0.48259086  0.32270669    -0.05000
N1364       N  0.57486367  0.48114213  0.32626305    -0.60600
N1365       N  0.52315900  0.45344498  0.32867243    -0.06900
N1366       N  0.53187330  0.43184511  0.33533128    -0.59600
N1367       N  0.53309105  0.99298556  0.20741562    -0.04600
N1368       N  0.53059789  0.01432710  0.25012054    -0.60700
Mn1369     Mn  0.54775980  0.03046675  0.29913030     1.18400
C1370       C  0.99720177  0.99812609  0.26233171     0.97600
C1371       C  0.56428254  0.44964106  0.33482429     0.98300
N1372       N  0.98024858  0.05563478  0.40652839    -0.06900
N1373       N  0.97692218  0.08052210  0.39500866    -0.63200
N1374       N  0.94972185  0.53035854  0.51018418    -0.05700
N1375       N  0.95423383  0.50476546  0.00891152    -0.63900
N1376       N  0.47741350  0.05646245  0.50641515    -0.06400
N1377       N  0.49796443  0.04939327  0.00498155    -0.63500
N1378       N  0.95150587  0.02873962  0.40806127    -0.05300
N1379       N  0.92912593  0.03580152  0.39762034    -0.64200
Mn1380     Mn  0.52354552  0.05824812  0.45803482     1.10700
C1381       C  0.94525975  0.06820983  0.38947071     0.98800
C1382       C  0.98518973  0.51864997  0.02142285     0.98900
N1383       N  0.95086954  0.41970966  0.39424419    -0.06400
N1384       N  0.94259614  0.38880758  0.39301272    -0.61800
N1385       N  0.91445517  0.46087060  0.37521081    -0.05700
N1386       N  0.88430399  0.45321424  0.37392627    -0.58500
N1387       N  0.92277169  0.44699993  0.32225378    -0.07000
N1388       N  0.89774093  0.43010612  0.28416280    -0.61300
N1389       N  0.93689680  0.42806908  0.44517972    -0.06000
N1390       N  0.91898876  0.40223114  0.48079299    -0.58500
Mn1391     Mn  0.97260026  0.45001413  0.31400945     1.20200
Mn1392     Mn  0.94419321  0.48134779  0.46171740     1.10100
Cl1393     Cl  0.99702054  0.00652635  0.38769936    -0.86500
C1394       C  0.92300840  0.37820533  0.44855682     0.95800
C1395       C  0.87429966  0.43436697  0.31587274     0.95600
N1396       N  0.56807305  0.06538907  0.19086737    -0.06700
N1397       N  0.59322149  0.08428668  0.22827857    -0.58800
N1398       N  0.55119846  0.07477813  0.05947376    -0.06300
N1399       N  0.56848520  0.09930497  0.02056228    -0.60900
N1400       N  0.53725241  0.08461481  0.10935387    -0.05900
N1401       N  0.54487730  0.11504209  0.10421853    -0.58800
N1402       N  0.57608921  0.04913956  0.14374714    -0.05600
N1403       N  0.60598195  0.05664902  0.14774605    -0.61300
C1404       C  0.61647834  0.07840013  0.20162270     0.95500
C1405       C  0.56431300  0.12390181  0.04789675     0.95300
N1406       N  0.00624587  0.46524597  0.96123321    -0.06800
N1407       N  0.98645281  0.46945785  0.50379483    -0.59400
N1408       N  0.54217249  0.47259784  0.08107754    -0.05000
N1409       N  0.56306888  0.46357186  0.08996598    -0.60600
N1410       N  0.51350900  0.44663522  0.07357488    -0.06900
N1411       N  0.51456768  0.41999404  0.07800239    -0.59600
N1412       N  0.53194142  0.99253001  0.95806524    -0.04600
N1413       N  0.53318713  0.01333758  0.50628018    -0.60700
Mn1414     Mn  0.54827938  0.02402608  0.05815364     1.18400
C1415       C  0.00217145  0.00192106  0.51328772     0.97600
C1416       C  0.54536372  0.43060843  0.08884051     0.98300
N1417       N  0.96911522  0.04930983  0.15707232    -0.06900
N1418       N  0.96037634  0.07073270  0.14654954    -0.63200
N1419       N  0.94232001  0.52110458  0.25908994    -0.05700
N1420       N  0.94897546  0.49771205  0.25710735    -0.63900
N1421       N  0.46966678  0.05155681  0.25342183    -0.06400
N1422       N  0.49441434  0.04723790  0.25136673    -0.63500
N1423       N  0.94349634  0.01948599  0.15537443    -0.05300
N1424       N  0.91818959  0.02102022  0.14263164    -0.64200
Mn1425     Mn  0.51642563  0.05778398  0.19955809     1.10700
C1426       C  0.92831601  0.05252391  0.13779187     0.98800
C1427       C  0.98011489  0.51357290  0.26789780     0.98900
N1428       N  0.94725047  0.41619497  0.13268036    -0.06400
N1429       N  0.94426583  0.38723007  0.13210833    -0.61800
N1430       N  0.91184034  0.45788729  0.12434248    -0.05700
N1431       N  0.88291888  0.45372377  0.12459380    -0.58500
N1432       N  0.92136501  0.45031978  0.06423675    -0.07000
N1433       N  0.89800361  0.44166438  0.02220854    -0.61300
N1434       N  0.93648081  0.42395584  0.19003698    -0.06000
N1435       N  0.92592440  0.39971256  0.23040606    -0.58500
Mn1436     Mn  0.97025325  0.44842721  0.05463400     1.20200
Mn1437     Mn  0.94063634  0.47437587  0.20997299     1.10100
Cl1438     Cl  0.99309281  0.00212156  0.13746932    -0.86500
C1439       C  0.93124090  0.37730696  0.19387077     0.95800
C1440       C  0.87481734  0.44457104  0.06000817     0.95600
C1441       C  0.66542369  0.33729246  0.21122850     0.29500
C1442       C  0.66466685  0.33648853  0.36740576     0.29500
C1443       C  0.66753105  0.36675277  0.25985039    -0.06700
C1444       C  0.63598753  0.30983099  0.25132851    -0.07500
C1445       C  0.69212910  0.33481476  0.24591765    -0.07400
C1446       C  0.66741411  0.36639120  0.33417563    -0.06700
C1447       C  0.63557283  0.30964454  0.32547553    -0.07500
C1448       C  0.69123998  0.33381492  0.32009838    -0.07400
C1449       C  0.65744959  0.38762590  0.36119199    -0.32800
N1450       N  0.65083932  0.39999751  0.31092966     0.13700
C1451       C  0.65750525  0.38824679  0.25007255    -0.32800
H1452       H  0.65207557  0.39242420  0.20208726     0.15700
C1453       C  0.61107889  0.27950410  0.34166257    -0.31800
N1454       N  0.59759432  0.26115424  0.28410957     0.12500
C1455       C  0.61188694  0.27945602  0.22990201    -0.31700
C1456       C  0.72124183  0.34143535  0.33577426    -0.32000
N1457       N  0.74076915  0.34953582  0.27924655     0.13000
H1458       H  0.72939980  0.34467926  0.38621642     0.15600
C1459       C  0.72346449  0.34464172  0.22485852    -0.32000
H1460       H  0.73369033  0.35079953  0.17470792     0.15600
H1461       H  0.60703437  0.27015381  0.17775537     0.15600
H1462       H  0.65204384  0.39120866  0.41398388     0.15700
H1463       H  0.60560003  0.27025774  0.39139991     0.15600
C1464       C  0.66498565  0.33656782  0.46109893     0.29500
C1465       C  0.66554362  0.33759319  0.11730957     0.29500
C1466       C  0.63654711  0.33548686  0.50824145    -0.06700
C1467       C  0.66554338  0.30845069  0.49483198    -0.07500
C1468       C  0.69275458  0.36576129  0.50307414    -0.07400
C1469       C  0.63666543  0.33573991  0.08307338    -0.06700
C1470       C  0.66715981  0.31006884  0.06820417    -0.07500
C1471       C  0.69262754  0.36718046  0.07784057    -0.07400
C1472       C  0.61382533  0.34320917  0.10965996    -0.32800
N1473       N  0.60084767  0.34838464  0.55592256     0.13700
C1474       C  0.61343162  0.34238461  0.49600122    -0.32800
H1475       H  0.60845067  0.34632543  0.44715280     0.15700
C1476       C  0.65652586  0.27839985  0.08053568    -0.31800
N1477       N  0.64572483  0.25791902  0.52500911     0.12500
C1478       C  0.65307035  0.27628009  0.47167209    -0.31700
C1479       C  0.72336590  0.38894187  0.09549503    -0.32000
N1480       N  0.74247650  0.39853501  0.53830244     0.13000
H1481       H  0.73203738  0.39284589  0.14542492     0.15600
C1482       C  0.72418720  0.38676271  0.48337036    -0.32000
H1483       H  0.73385101  0.39066131  0.43175362     0.15600
H1484       H  0.64685425  0.26641554  0.42028374     0.15600
H1485       H  0.60908561  0.34764558  0.16293389     0.15700
H1486       H  0.65082717  0.26888924  0.13009769     0.15600
C1487       C  0.62770801  0.22518975  0.01873136    -0.06700
C1488       C  0.64002779  0.20435413  0.01496640    -0.17800
C1489       C  0.62000559  0.17120174  0.02340303     0.10500
C1490       C  0.58655960  0.15826194  0.03389646    -0.06600
C1491       C  0.57419299  0.17914611  0.03490200    -0.17800
C1492       C  0.59447913  0.21249249  0.02764001     0.10600
S1493       S  0.63946392  0.14799994  0.02718319    -0.32800
S1494       S  0.57423282  0.23577285  0.53161440    -0.32800
H1495       H  0.54221824  0.21134585  0.54182867     0.28600
H1496       H  0.62026623  0.12956588  0.08099856     0.28600
H1497       H  0.66564289  0.21440035  0.00929254     0.19200
H1498       H  0.54869122  0.16937455  0.04286470     0.19200
C1499       C  0.77623107  0.41141150  0.03686690    -0.06700
C1500       C  0.78546611  0.39131516  0.06225276    -0.17800
C1501       C  0.81751489  0.40062139  0.06594426     0.10500
C1502       C  0.84148340  0.43030684  0.04108267    -0.06600
C1503       C  0.83246026  0.44974077  0.01181711    -0.17800
C1504       C  0.79904381  0.43917545  0.50934353     0.10600
S1505       S  0.82603682  0.37438280  0.10747110    -0.32800
S1506       S  0.78674705  0.46550076  0.48114101    -0.32800
H1507       H  0.81763274  0.49170882  0.46852091     0.28600
H1508       H  0.85624622  0.38414235  0.07550153     0.28600
H1509       H  0.76742748  0.36830289  0.08045914     0.19200
H1510       H  0.84957056  0.47269246  0.49328212     0.19200
C1511       C  0.58743300  0.36959529  0.06809292    -0.06700
C1512       C  0.55501687  0.35607988  0.58182300    -0.17800
C1513       C  0.54013092  0.37479867  0.09164627     0.10500
C1514       C  0.55899456  0.40882531  0.08468452    -0.06600
C1515       C  0.59189670  0.42247873  0.07018639    -0.17800
C1516       C  0.60625035  0.40341208  0.06223373     0.10600
S1517       S  0.49999398  0.35792629  0.62162228    -0.32800
S1518       S  0.64874291  0.42381108  0.04395478    -0.32800
H1519       H  0.65475599  0.40510580  0.08337391     0.28600
H1520       H  0.49156117  0.32290672  0.10598499     0.28600
H1521       H  0.54065648  0.33029333  0.58809043     0.19200
H1522       H  0.60671287  0.44829100  0.06431849     0.19200
C1523       C  0.58093222  0.22614583  0.28022188    -0.06700
C1524       C  0.59478749  0.21007373  0.24012981    -0.17800
C1525       C  0.58475733  0.17740078  0.24737774     0.10500
C1526       C  0.55983068  0.15993541  0.29533605    -0.06600
C1527       C  0.54445232  0.17550646  0.33188987    -0.17800
C1528       C  0.55451347  0.20814187  0.32436697     0.10600
S1529       S  0.60629694  0.15981041  0.19976832    -0.32800
S1530       S  0.53314774  0.22576920  0.37302805    -0.32800
H1531       H  0.54281012  0.25141253  0.33127880     0.28600
H1532       H  0.63203150  0.18871039  0.17597127     0.28600
H1533       H  0.61510863  0.22391341  0.20638048     0.19200
H1534       H  0.52486598  0.16236908  0.36795518     0.19200
C1535       C  0.77472897  0.37047631  0.28240666    -0.06700
C1536       C  0.79338782  0.35776435  0.29879063    -0.17800
C1537       C  0.82609555  0.37811489  0.30950993     0.10500
C1538       C  0.84034358  0.41185136  0.30351862    -0.06600
C1539       C  0.82174384  0.42456733  0.28737213    -0.17800
C1540       C  0.78911393  0.40439546  0.27771472     0.10600
S1541       S  0.84902522  0.36119296  0.33466779    -0.32800
S1542       S  0.76687411  0.42374834  0.26378487    -0.32800
H1543       H  0.74042483  0.40455292  0.30621354     0.28600
H1544       H  0.82437362  0.32855405  0.33170766     0.28600
H1545       H  0.78199112  0.33198150  0.30470702     0.19200
H1546       H  0.83259085  0.45052272  0.28382480     0.19200
C1547       C  0.58626022  0.43643972  0.33228104    -0.06700
C1548       C  0.61685373  0.45432988  0.30059177    -0.17800
C1549       C  0.63875514  0.44331921  0.29456709     0.10500
C1550       C  0.63018792  0.41360962  0.32037179    -0.06600
C1551       C  0.59989575  0.39586024  0.35288583    -0.17800
C1552       C  0.57804571  0.40698468  0.35970075     0.10600
S1553       S  0.67727188  0.46825094  0.25362363    -0.32800
S1554       S  0.54054584  0.38264404  0.40473902    -0.32800
H1555       H  0.53982576  0.40927612  0.44057476     0.28600
H1556       H  0.69381354  0.45722233  0.28701168     0.28600
H1557       H  0.62383926  0.47709625  0.27967042     0.19200
H1558       H  0.59310705  0.37289034  0.37247882     0.17000
C1559       C  0.86503002  0.09204118  0.16626945    -0.06700
C1560       C  0.85255918  0.05896207  0.16975584    -0.17800
C1561       C  0.87210576  0.04512074  0.15948873     0.10500
C1562       C  0.90565049  0.06523438  0.14494588    -0.06600
C1563       C  0.91785624  0.09856548  0.14010923    -0.17800
C1564       C  0.89809110  0.11220022  0.15168550     0.10600
S1565       S  0.85288342  0.00202885  0.16927914    -0.32800
S1566       S  0.91666892  0.15557234  0.14930316    -0.32800
H1567       H  0.89632812  0.15959087  0.19937574     0.28600
H1568       H  0.82101740  0.99469790  0.16863256     0.28600
H1569       H  0.82724181  0.04409167  0.18157920     0.19200
H1570       H  0.94313775  0.11431846  0.12894409     0.19200
C1571       C  0.89909593  0.27733199  0.21117304    -0.06700
C1572       C  0.87842295  0.28666967  0.18984240    -0.17800
C1573       C  0.88757563  0.31939023  0.18858416     0.10500
C1574       C  0.91776084  0.34345780  0.21068569    -0.06600
C1575       C  0.93743925  0.33427217  0.23756057    -0.17800
C1576       C  0.92861849  0.30141166  0.23718191     0.10600
S1577       S  0.86124567  0.33035197  0.15598943    -0.32800
S1578       S  0.95670557  0.29198575  0.26653593    -0.32800
H1579       H  0.94540078  0.26155449  0.23052091     0.28600
H1580       H  0.83560045  0.29860091  0.14423524     0.28600
H1581       H  0.85527260  0.26803711  0.17252204     0.19200
H1582       H  0.96063478  0.35284349  0.25503980     0.19200
C1583       C  0.65079099  0.09729762  0.21794781    -0.06700
C1584       C  0.67017495  0.08489213  0.18860593    -0.17800
C1585       C  0.70320843  0.10256255  0.19271561     0.10500
C1586       C  0.71805107  0.13489433  0.22113239    -0.06600
C1587       C  0.69899547  0.14664911  0.25530593    -0.17800
C1588       C  0.66550129  0.12764745  0.25664336     0.10600
S1589       S  0.72462258  0.08150185  0.16473146    -0.32800
S1590       S  0.64370606  0.14336417  0.31007248    -0.32800
H1591       H  0.62218730  0.11362699  0.33741104     0.28600
H1592       H  0.74966242  0.09911253  0.20902910     0.28600
H1593       H  0.65948813  0.06082656  0.16283942     0.19200
H1594       H  0.71033759  0.17057072  0.28165089     0.19200
C1595       C  0.93044036  0.08928573  0.39853231    -0.06700
C1596       C  0.94834898  0.12123853  0.42813538    -0.17800
C1597       C  0.93579603  0.14217606  0.43927177     0.10500
C1598       C  0.90456991  0.13135632  0.42073927    -0.06600
C1599       C  0.88644625  0.09946572  0.39206008    -0.17800
C1600       C  0.89893856  0.07850809  0.38054705     0.10600
S1601       S  0.96065150  0.18246442  0.47700479    -0.32800
S1602       S  0.87362023  0.03869462  0.34141099    -0.32800
H1603       H  0.89788022  0.03954319  0.29567668     0.28600
H1604       H  0.94773418  0.19732483  0.44364267     0.28600
H1605       H  0.97238016  0.13009711  0.44322627     0.19200
H1606       H  0.86338458  0.09250244  0.87051318     0.19200
C1607       C  0.85779854  0.27624186  0.46608434    -0.06700
C1608       C  0.89071189  0.28804730  0.45646461    -0.17800
C1609       C  0.91247882  0.32124222  0.45232604     0.10500
C1610       C  0.90121138  0.34334295  0.45867221    -0.06600
C1611       C  0.86832269  0.33166035  0.47078788    -0.17800
C1612       C  0.84641895  0.29829365  0.47321862     0.10600
S1613       S  0.95458836  0.33513884  0.43999356    -0.32800
S1614       S  0.80444959  0.28491205  0.99185157    -0.32800
H1615       H  0.79331133  0.25218715  0.00124073     0.28600
H1616       H  0.95255871  0.30568065  0.45151799     0.28600
H1617       H  0.89911813  0.27085063  0.45065073     0.19200
H1618       H  0.85948429  0.34850020  0.47568952     0.19200
C1619       C  0.65162471  0.07452592  0.45191773    -0.06700
C1620       C  0.67524622  0.10722216  0.44892493    -0.17800
C1621       C  0.70536790  0.11680290  0.94751675     0.10500
C1622       C  0.71671829  0.09369937  0.45592316    -0.06600
C1623       C  0.69312449  0.06107953  0.46122403    -0.17800
C1624       C  0.66060344  0.05133098  0.46027876     0.10600
S1625       S  0.73385030  0.15980929  0.95263986    -0.32800
S1626       S  0.63173611  0.00890070  0.46778116    -0.32800
H1627       H  0.60576240  0.01308397  0.49103453     0.28600
H1628       H  0.71184489  0.17030115  0.94844682     0.28600
H1629       H  0.66593212  0.12280717  0.92885891     0.19200
H1630       H  0.70012293  0.04319819  0.46508963     0.19200
C1631       C  0.82694166  0.16525200  0.52775740     0.29500
C1632       C  0.82677918  0.16501642  0.87131096     0.29500
C1633       C  0.85596271  0.16679347  0.48059496    -0.06700
C1634       C  0.79979544  0.13572167  0.48546269    -0.07500
C1635       C  0.82531890  0.19278673  0.49370246    -0.07400
C1636       C  0.85545116  0.16641912  0.90576911    -0.06700
C1637       C  0.79929847  0.13575029  0.91076231    -0.07500
C1638       C  0.82535808  0.19265886  0.91975068    -0.07400
C1639       C  0.87809806  0.15862036  0.87907586    -0.32800
N1640       N  0.89053607  0.15213297  0.92947338     0.13700
C1641       C  0.87820104  0.15797206  0.49127793    -0.32800
H1642       H  0.88320809  0.15353818  0.53948033     0.15700
C1643       C  0.76813608  0.11518768  0.89339416    -0.31800
N1644       N  0.74997060  0.10313095  0.45128827     0.12500
C1645       C  0.76854835  0.11499427  0.50561222    -0.31700
C1646       C  0.83194508  0.22307171  0.90679077    -0.32000
N1647       N  0.83692680  0.24170858  0.46469583     0.13000
H1648       H  0.83607944  0.23217840  0.85713182     0.15600
C1649       C  0.83263349  0.22384997  0.51753649    -0.32000
H1650       H  0.83793421  0.23392855  0.56921719     0.15600
H1651       H  0.75929683  0.11211097  0.55715807     0.15600
H1652       H  0.88348453  0.15523806  0.82582843     0.15700
H1653       H  0.75930653  0.11116295  0.84327351     0.15600
C1654       C  0.82678267  0.16534595  0.77784624     0.29500
C1655       C  0.82631758  0.16523156  0.62189300     0.29500
C1656       C  0.82464019  0.13582894  0.72957928    -0.06700
C1657       C  0.79981269  0.16756322  0.74458110    -0.07500
C1658       C  0.85572641  0.19282445  0.73727570    -0.07400
C1659       C  0.82423657  0.13573027  0.65514624    -0.06700
C1660       C  0.79931706  0.16730017  0.67048170    -0.07500
C1661       C  0.85558378  0.19252959  0.66298918    -0.07400
C1662       C  0.83523575  0.11533014  0.62800251    -0.32800
N1663       N  0.84406466  0.10513426  0.67839724     0.13700
C1664       C  0.83645704  0.11587927  0.73917734    -0.32800
H1665       H  0.84186069  0.11163720  0.78708530     0.15700
C1666       C  0.76848425  0.15927609  0.65868434    -0.31800
N1667       N  0.75075083  0.15405913  0.71829033     0.12500
C1668       C  0.76979610  0.16048670  0.77004028    -0.31700
C1669       C  0.87742925  0.22365321  0.64695525    -0.32000
N1670       N  0.88947441  0.24291180  0.70440247     0.13000
H1671       H  0.88105627  0.23280437  0.59756410     0.15600
C1672       C  0.87716772  0.22445095  0.75853483    -0.32000
H1673       H  0.88074404  0.23432236  0.81066305     0.15600
H1674       H  0.76126386  0.15650282  0.82210057     0.15600
H1675       H  0.83981862  0.11090428  0.57475134     0.15700
H1676       H  0.75860883  0.15445839  0.60952099     0.15600
N1677       N  0.57093879  0.05869850  0.92845545    -0.06700
N1678       N  0.59590702  0.06795525  0.96590551    -0.58800
N1679       N  0.54363897  0.08014684  0.81767268    -0.06300
N1680       N  0.55172541  0.10412190  0.77791958    -0.60900
N1681       N  0.53736373  0.08924067  0.87926997    -0.05900
N1682       N  0.54147454  0.11875730  0.88322875    -0.58800
N1683       N  0.57690016  0.04823642  0.86830023    -0.05600
N1684       N  0.60516965  0.05038033  0.86278453    -0.61300
C1685       C  0.61679943  0.06254474  0.92451393     0.95500
C1686       C  0.55033133  0.12790942  0.81941717     0.95300
N1687       N  0.00484229  0.46007283  0.71834594    -0.06800
N1688       N  0.98306055  0.46281031  0.75764297    -0.59400
N1689       N  0.54756905  0.48392779  0.82144637    -0.05000
N1690       N  0.57388575  0.48237919  0.82206770    -0.60600
N1691       N  0.52220960  0.45472525  0.82937439    -0.06900
N1692       N  0.53116087  0.43316879  0.83426101    -0.59600
N1693       N  0.53213304  0.98713875  0.71694226    -0.04600
N1694       N  0.52709469  0.00938441  0.75057570    -0.60700
Mn1695     Mn  0.54210802  0.02979968  0.79550519     1.18400
C1696       C  0.99637598  0.99657016  0.76239707     0.97600
C1697       C  0.56355175  0.45088302  0.83095896     0.98300
N1698       N  0.97953893  0.05543828  0.90506592    -0.06900
N1699       N  0.97638763  0.08029791  0.89247215    -0.63200
N1700       N  0.94976233  0.52968758  0.00983024    -0.05700
N1701       N  0.95455328  0.50575555  0.51052803    -0.63900
N1702       N  0.47523417  0.05641376  0.00542896    -0.06400
N1703       N  0.50047613  0.04977635  0.50495853    -0.63500
N1704       N  0.95070929  0.02869900  0.90726745    -0.05300
N1705       N  0.92844392  0.03579819  0.89607598    -0.64200
Mn1706     Mn  0.52132339  0.05708803  0.95812201     1.10700
C1707       C  0.94473358  0.06808307  0.88684392     0.98800
C1708       C  0.98559211  0.52002661  0.52243226     0.98900
N1709       N  0.95061283  0.41919095  0.89650389    -0.06400
N1710       N  0.94234836  0.38837359  0.89683353    -0.61800
N1711       N  0.91470267  0.46010493  0.87173019    -0.05700
N1712       N  0.88461850  0.45264120  0.87028727    -0.58500
N1713       N  0.92272751  0.44522247  0.82017434    -0.07000
N1714       N  0.89729547  0.42756234  0.78335983    -0.61300
N1715       N  0.93605215  0.42780212  0.94571072    -0.06000
N1716       N  0.91768342  0.40217528  0.98159643    -0.58500
Mn1717     Mn  0.97273117  0.44785757  0.81410477     1.20200
Mn1718     Mn  0.94365553  0.48099312  0.95917709     1.10100
Cl1719     Cl  0.99517434  0.00706805  0.88786640    -0.86500
C1720       C  0.92214074  0.37812579  0.95146565     0.95800
C1721       C  0.87409489  0.43256894  0.81403349     0.95600
N1722       N  0.56585195  0.06241237  0.69823667    -0.06700
N1723       N  0.59077038  0.08190358  0.73599582    -0.58800
N1724       N  0.55136284  0.07335157  0.56684718    -0.06300
N1725       N  0.56880016  0.09843852  0.52956943    -0.60900
N1726       N  0.53620126  0.08226432  0.61558707    -0.05900
N1727       N  0.54317103  0.11258072  0.61112636    -0.58800
N1728       N  0.57433172  0.04603692  0.65239438    -0.05600
N1729       N  0.60417273  0.05382368  0.65777779    -0.61300
C1730       C  0.61434393  0.07600513  0.71087416     0.95500
C1731       C  0.56342642  0.12228210  0.55613387     0.95300
N1732       N  0.00677723  0.46702751  0.45998271    -0.06800
N1733       N  0.98600282  0.46795075  0.00489711    -0.59400
N1734       N  0.54373490  0.47368451  0.58398869    -0.05000
N1735       N  0.56489755  0.46476758  0.59132243    -0.60600
N1736       N  0.51516009  0.44762414  0.57571006    -0.06900
N1737       N  0.51652708  0.42107743  0.57834696    -0.59600
N1738       N  0.53510015  0.99286889  0.46031004    -0.04600
N1739       N  0.53047934  0.01333614  0.00371983    -0.60700
Mn1740     Mn  0.54891440  0.02253840  0.56340930     1.18400
C1741       C  0.00081659  0.00243786  0.01290693     0.97600
C1742       C  0.54734087  0.43177214  0.58894280     0.98300
N1743       N  0.97012222  0.05009888  0.65768371    -0.06900
N1744       N  0.96189472  0.07202665  0.64809601    -0.63200
N1745       N  0.94106256  0.52004708  0.75925159    -0.05700
N1746       N  0.94748681  0.49647513  0.75663601    -0.63900
N1747       N  0.46634321  0.04644070  0.75356292    -0.06400
N1748       N  0.49101595  0.04200516  0.75228523    -0.63500
N1749       N  0.94420560  0.02050661  0.65490544    -0.05300
N1750       N  0.91924097  0.02261914  0.64232921    -0.64200
Mn1751     Mn  0.51397675  0.05391478  0.70295040     1.10700
C1752       C  0.92985461  0.05430276  0.63854138     0.98800
C1753       C  0.97847190  0.51204273  0.76889641     0.98900
N1754       N  0.94672853  0.41604733  0.62751511    -0.06400
N1755       N  0.94365227  0.38697282  0.62502087    -0.61800
N1756       N  0.91171328  0.45840668  0.62130293    -0.05700
N1757       N  0.88292202  0.45445239  0.62079114    -0.58500
N1758       N  0.92127561  0.45052105  0.56159674    -0.07000
N1759       N  0.89794107  0.44140677  0.51929941    -0.61300
N1760       N  0.93553363  0.42312598  0.68508310    -0.06000
N1761       N  0.92466403  0.39822860  0.72373503    -0.58500
Mn1762     Mn  0.97025532  0.44914333  0.55193220     1.20200
Mn1763     Mn  0.93959307  0.47361189  0.70812461     1.10100
Cl1764     Cl  0.99360513  0.00112125  0.63774143    -0.86500
C1765       C  0.93004438  0.37619634  0.68583848     0.95800
C1766       C  0.87493248  0.44492592  0.55622223     0.95600
C1767       C  0.66498487  0.33755940  0.71164118     0.29500
C1768       C  0.66475943  0.33794169  0.86792561     0.29500
C1769       C  0.66722591  0.36741858  0.75930787    -0.06700
C1770       C  0.63561185  0.31046326  0.75271939    -0.07500
C1771       C  0.69177191  0.33528513  0.74662647    -0.07400
C1772       C  0.66725338  0.36760601  0.83384437    -0.06700
C1773       C  0.63558368  0.31082706  0.82689610    -0.07500
C1774       C  0.69114998  0.33501381  0.82081359    -0.07400
C1775       C  0.65672605  0.38858760  0.85988836    -0.32800
N1776       N  0.64979923  0.40039422  0.80900646     0.13700
C1777       C  0.65676712  0.38849561  0.74864887    -0.32800
H1778       H  0.65138284  0.39236760  0.70014628     0.15700
C1779       C  0.61136283  0.28083393  0.84430472    -0.31800
N1780       N  0.59746457  0.26207948  0.78746065     0.12500
C1781       C  0.61127154  0.27998473  0.73255687    -0.31700
C1782       C  0.72093948  0.34203455  0.83645517    -0.32000
N1783       N  0.74012252  0.34857305  0.77942864     0.13000
H1784       H  0.72929209  0.34593169  0.88691908     0.15600
C1785       C  0.72274181  0.34362398  0.72509363    -0.32000
H1786       H  0.73286820  0.34879032  0.67424907     0.15600
H1787       H  0.60578501  0.27032923  0.68067137     0.15600
H1788       H  0.65142162  0.39262729  0.91289963     0.15700
H1789       H  0.60650949  0.27197102  0.89428104     0.15600
C1790       C  0.66539972  0.33799262  0.96135636     0.29500
C1791       C  0.66495884  0.33711975  0.61754494     0.29500
C1792       C  0.63667316  0.33605003  0.00899919    -0.06700
C1793       C  0.66688703  0.31012579  0.99381098    -0.07500
C1794       C  0.69293580  0.36732173  0.00355283    -0.07400
C1795       C  0.63651596  0.33581815  0.58246483    -0.06700
C1796       C  0.66578424  0.30890419  0.56952877    -0.07500
C1797       C  0.69249517  0.36597436  0.57748238    -0.07400
C1798       C  0.61350237  0.34320207  0.60787742    -0.32800
N1799       N  0.60145633  0.34935025  0.05864596     0.13700
C1800       C  0.61399191  0.34385102  0.99814537    -0.32800
H1801       H  0.60912506  0.34850025  0.94994356     0.15700
C1802       C  0.65395592  0.27720416  0.58321713    -0.31800
N1803       N  0.64916092  0.25958819  0.02149790     0.12500
C1804       C  0.65583692  0.27835425  0.96916599    -0.31700
C1805       C  0.72342006  0.38712509  0.59485261    -0.32000
N1806       N  0.74260002  0.40081650  0.03923131     0.13000
H1807       H  0.73227226  0.39133679  0.64496173     0.15600
C1808       C  0.72438332  0.38873418  0.98407237    -0.32000
H1809       H  0.73412483  0.39250736  0.93250013     0.15600
H1810       H  0.64957458  0.26882814  0.91757099     0.15600
H1811       H  0.60857334  0.34794824  0.66079640     0.15700
H1812       H  0.64853516  0.26814539  0.63330450     0.15600
C1813       C  0.62477756  0.22348114  0.52349461    -0.06700
C1814       C  0.63789203  0.20353033  0.52348468    -0.17800
C1815       C  0.61844760  0.17033721  0.53272221     0.10500
C1816       C  0.58487074  0.15672450  0.54157199    -0.06600
C1817       C  0.57170685  0.17673568  0.53960782    -0.17800
C1818       C  0.59139584  0.21003628  0.53070023     0.10600
S1819       S  0.63742494  0.14698232  0.54182718    -0.32800
S1820       S  0.57829471  0.23926098  0.03292689    -0.32800
H1821       H  0.54601138  0.21517346  0.04110605     0.28600
H1822       H  0.66902879  0.17144363  0.52776368     0.28600
H1823       H  0.66360491  0.21453845  0.51956884     0.19200
H1824       H  0.54607934  0.16632046  0.54621639     0.19200
C1825       C  0.77609036  0.40937285  0.53514869    -0.06700
C1826       C  0.78610862  0.38963181  0.55923892    -0.17800
C1827       C  0.81853808  0.39991476  0.56182689     0.10500
C1828       C  0.84157058  0.43006117  0.53766428    -0.06600
C1829       C  0.83168458  0.44912468  0.50998768    -0.17800
C1830       C  0.80011309  0.44089634  0.01048189     0.10600
S1831       S  0.83055189  0.37537078  0.59958963    -0.32800
S1832       S  0.79126874  0.46924065  0.97907004    -0.32800
H1833       H  0.76049764  0.45718656  0.00984656     0.28600
H1834       H  0.79969421  0.34982216  0.61529820     0.28600
H1835       H  0.76834422  0.36643841  0.57746966     0.19200
H1836       H  0.85076333  0.47304591  0.99455416     0.19200
C1837       C  0.58736795  0.36908777  0.56382968    -0.06700
C1838       C  0.55471078  0.35569209  0.08332266    -0.17800
C1839       C  0.54145689  0.37603781  0.59286485     0.10500
C1840       C  0.56074505  0.40981679  0.58375642    -0.06600
C1841       C  0.59338800  0.42270372  0.56669228    -0.17800
C1842       C  0.60693566  0.40277109  0.55769339     0.10600
S1843       S  0.49777071  0.35509771  0.11233462    -0.32800
S1844       S  0.64951775  0.42061351  0.54195211    -0.32800
H1845       H  0.65638532  0.45259786  0.53685726     0.28600
H1846       H  0.49399100  0.32618187  0.62579680     0.28600
H1847       H  0.54072660  0.32977046  0.08836997     0.19200
H1848       H  0.60832872  0.44843394  0.56046328     0.19200
C1849       C  0.58066852  0.22708635  0.78483958    -0.06700
C1850       C  0.59374828  0.21051093  0.74375864    -0.17800
C1851       C  0.58364089  0.17787035  0.75170243     0.10500
C1852       C  0.55925940  0.16090091  0.80097439    -0.06600
C1853       C  0.54486732  0.17706236  0.83922939    -0.17800
C1854       C  0.55506208  0.20967000  0.83118572     0.10600
S1855       S  0.60464709  0.15971657  0.70386610    -0.32800
S1856       S  0.53491010  0.22808598  0.88186249    -0.32800
H1857       H  0.54285592  0.25247970  0.83781866     0.28600
H1858       H  0.63032675  0.18843158  0.67925706     0.28600
H1859       H  0.61360589  0.22394058  0.70862348     0.19200
H1860       H  0.52588631  0.16437759  0.87681412     0.19200
C1861       C  0.77412979  0.36930402  0.78170615    -0.06700
C1862       C  0.79311554  0.35607902  0.79217419    -0.17800
C1863       C  0.82564266  0.37616192  0.80417907     0.10500
C1864       C  0.83983932  0.41024652  0.80318633    -0.06600
C1865       C  0.82072917  0.42347796  0.79368377    -0.17800
C1866       C  0.78796032  0.40338271  0.78386388     0.10600
S1867       S  0.84701542  0.35707221  0.82630639    -0.32800
S1868       S  0.76336772  0.42127959  0.77882242    -0.32800
H1869       H  0.78831794  0.45376712  0.77918366     0.28600
H1870       H  0.86509233  0.38155666  0.87574303     0.28600
H1871       H  0.78212737  0.33002436  0.79405024     0.19200
H1872       H  0.83148249  0.44962963  0.79503510     0.19200
C1873       C  0.58543041  0.43741469  0.82807429    -0.06700
C1874       C  0.61570743  0.45452638  0.79464537    -0.17800
C1875       C  0.63756018  0.44339701  0.78974677     0.10500
C1876       C  0.62912561  0.41409201  0.81741432    -0.06600
C1877       C  0.59903443  0.39697987  0.85113272    -0.17800
C1878       C  0.57738768  0.40841558  0.85756626     0.10600
S1879       S  0.67624092  0.46799564  0.74932328    -0.32800
S1880       S  0.54052343  0.38530351  0.90576650    -0.32800
H1881       H  0.54094972  0.41272728  0.94042236     0.28600
H1882       H  0.69264997  0.45903536  0.78885736     0.28600
H1883       H  0.62258640  0.47692318  0.77220413     0.19200
H1884       H  0.59234208  0.37440700  0.87251851     0.17000
C1885       C  0.86587412  0.09309638  0.66847309    -0.06700
C1886       C  0.85348439  0.05986932  0.65689733    -0.17800
C1887       C  0.87339778  0.04647502  0.64723675     0.10500
C1888       C  0.90732623  0.06722382  0.64697083    -0.06600
C1889       C  0.91960060  0.10084046  0.65891909    -0.17800
C1890       C  0.89934150  0.11395138  0.66994147     0.10600
S1891       S  0.85378895  0.00272066  0.63659051    -0.32800
S1892       S  0.91779501  0.15732046  0.68741508    -0.32800
H1893       H  0.89392591  0.16105824  0.66290752     0.28600
H1894       H  0.82284219  0.99580418  0.65951378     0.28600
H1895       H  0.82783100  0.04440884  0.65595845     0.19200
H1896       H  0.94515551  0.11708636  0.66035329     0.19200
C1897       C  0.89944436  0.27685721  0.70884205    -0.06700
C1898       C  0.87789433  0.28557243  0.68984815    -0.17800
C1899       C  0.88684709  0.31803112  0.68542547     0.10500
C1900       C  0.91775384  0.34254970  0.70238027    -0.06600
C1901       C  0.93867236  0.33414010  0.72611821    -0.17800
C1902       C  0.92998402  0.30149442  0.72916324     0.10600
S1903       S  0.85929586  0.32787474  0.65476537    -0.32800
S1904       S  0.95962818  0.29340602  0.75535525    -0.32800
H1905       H  0.94134412  0.25945897  0.75311776     0.28600
H1906       H  0.83368870  0.29588088  0.64594147     0.28600
H1907       H  0.85420278  0.26654706  0.67636600     0.19200
H1908       H  0.96246302  0.35312273  0.73945697     0.19200
C1909       C  0.64890210  0.09547321  0.72599475    -0.06700
C1910       C  0.66825963  0.08287937  0.69721397    -0.17800
C1911       C  0.70143732  0.10105221  0.69814695     0.10500
C1912       C  0.71647889  0.13379419  0.72390766    -0.06600
C1913       C  0.69751602  0.14579527  0.75804116    -0.17800
C1914       C  0.66392441  0.12656681  0.76158968     0.10600
S1915       S  0.72306030  0.08039751  0.66844794    -0.32800
S1916       S  0.64227329  0.14296499  0.81330840    -0.32800
H1917       H  0.62074933  0.11373802  0.84259433     0.28600
H1918       H  0.74778323  0.09759901  0.71367179     0.28600
H1919       H  0.65746268  0.05836644  0.67364026     0.19200
H1920       H  0.70898925  0.17013399  0.78240632     0.19200
C1921       C  0.93010369  0.08926827  0.89607215    -0.06700
C1922       C  0.94751745  0.12048439  0.92916804    -0.17800
C1923       C  0.93520362  0.14159880  0.94102796     0.10500
C1924       C  0.90468964  0.13171254  0.91889935    -0.06600
C1925       C  0.88706404  0.10046971  0.88666563    -0.17800
C1926       C  0.89926709  0.07928406  0.87501400     0.10600
S1927       S  0.95983686  0.18071519  0.98426578    -0.32800
S1928       S  0.87435083  0.04018047  0.83231696    -0.32800
H1929       H  0.89939893  0.04049681  0.79036119     0.28600
H1930       H  0.94360366  0.19606705  0.96750808     0.28600
H1931       H  0.97097108  0.12856086  0.94684870     0.19200
H1932       H  0.86230434  0.09092751  0.37819772     0.19200
C1933       C  0.85801371  0.27632387  0.96832336    -0.06700
C1934       C  0.89093643  0.28838400  0.95816597    -0.17800
C1935       C  0.91243953  0.32161200  0.95632633     0.10500
C1936       C  0.90084309  0.34347149  0.96302534    -0.06600
C1937       C  0.86789223  0.33146319  0.97504712    -0.17800
C1938       C  0.84633894  0.29808382  0.97796250     0.10600
S1939       S  0.95437734  0.33463253  0.94639193    -0.32800
S1940       S  0.80455677  0.28567532  0.48350078    -0.32800
H1941       H  0.79215292  0.25200070  0.47453144     0.28600
H1942       H  0.96456404  0.36386701  0.98693711     0.28600
H1943       H  0.89981386  0.27153825  0.95145531     0.19200
H1944       H  0.85873059  0.34803500  0.97991425     0.19200
C1945       C  0.64993366  0.07276527  0.94027125    -0.06700
C1946       C  0.67305090  0.10576217  0.93893724    -0.17800
C1947       C  0.70755446  0.11715213  0.45313994     0.10500
C1948       C  0.71539824  0.09420497  0.95243026    -0.06600
C1949       C  0.69241136  0.06121453  0.95475437    -0.17800
C1950       C  0.65975457  0.05025367  0.94964673     0.10600
S1951       S  0.73715897  0.15981282  0.45483165    -0.32800
S1952       S  0.63233753  0.00723925  0.95450019    -0.32800
H1953       H  0.60345077  0.00703263  0.95360147     0.28600
H1954       H  0.71584770  0.17137667  0.45317751     0.28600
H1955       H  0.66848784  0.12477431  0.44037868     0.19200
H1956       H  0.70005877  0.04390200  0.95945147     0.19200
C1957       C  0.82889719  0.66601095  0.02358899     0.29500
C1958       C  0.82967847  0.66564214  0.36709466     0.29500
C1959       C  0.85744141  0.66662595  0.97629812    -0.06700
C1960       C  0.80104728  0.63714378  0.98141776    -0.07500
C1961       C  0.82832757  0.69418559  0.98996460    -0.07400
C1962       C  0.85825028  0.66672508  0.40160655    -0.06700
C1963       C  0.80196840  0.63658501  0.40733086    -0.07500
C1964       C  0.82859298  0.69349092  0.41535307    -0.07400
C1965       C  0.88015684  0.65781837  0.37489677    -0.32800
N1966       N  0.89242735  0.65117616  0.42540047     0.13700
C1967       C  0.88022785  0.65859544  0.98710583    -0.32800
H1968       H  0.88541355  0.65441152  0.03537606     0.15700
C1969       C  0.77050593  0.61604327  0.39155168    -0.31800
N1970       N  0.75075754  0.60720169  0.94797885     0.12500
C1971       C  0.76949288  0.61752288  0.00183048    -0.31700
C1972       C  0.83435102  0.72362824  0.40228513    -0.32000
N1973       N  0.83777784  0.74252123  0.96279973     0.13000
H1974       H  0.83798541  0.73258008  0.35263645     0.15600
C1975       C  0.83372683  0.72444798  0.01502702    -0.32000
H1976       H  0.83749875  0.73390153  0.06732299     0.15600
H1977       H  0.76034747  0.61386769  0.05343822     0.15600
H1978       H  0.88527939  0.65404971  0.32177135     0.15700
H1979       H  0.76103042  0.61181785  0.34209229     0.15600
C1980       C  0.82985946  0.66618820  0.27331758     0.29500
C1981       C  0.82865048  0.66606571  0.11738060     0.29500
C1982       C  0.82832220  0.63701558  0.22423765    -0.06700
C1983       C  0.80231943  0.66754489  0.24061866    -0.07500
C1984       C  0.85825139  0.69439318  0.23227800    -0.07400
C1985       C  0.82772133  0.63709642  0.15005696    -0.06700
C1986       C  0.80149314  0.66734935  0.16666337    -0.07500
C1987       C  0.85765694  0.69391609  0.15789377    -0.07400
C1988       C  0.83792891  0.61621388  0.12185715    -0.32800
N1989       N  0.84619286  0.60513701  0.17156451     0.13700
C1990       C  0.83907608  0.61601014  0.23292998    -0.32800
H1991       H  0.84411705  0.61106368  0.28049099     0.15700
C1992       C  0.77075596  0.65976634  0.15564031    -0.31800
N1993       N  0.75326349  0.65424118  0.21552344     0.12500
C1994       C  0.77251666  0.66065575  0.26676923    -0.31700
C1995       C  0.87821528  0.72524430  0.14125296    -0.32000
N1996       N  0.89003816  0.74480365  0.19821658     0.13000
H1997       H  0.88160627  0.73407408  0.09160845     0.15600
C1998       C  0.87889553  0.72652817  0.25277035    -0.32000
H1999       H  0.88292426  0.73664718  0.30467304     0.15600
H2000       H  0.76425363  0.65705867  0.31929005     0.15600
H2001       H  0.84179014  0.61144933  0.06843528     0.15700
H2002       H  0.76079450  0.65578664  0.10696668     0.15600
N2003       N  0.57419973  0.56069752  0.43871666    -0.06700
N2004       N  0.59884617  0.56977844  0.47713859    -0.58800
N2005       N  0.54629620  0.57834667  0.31988648    -0.06300
N2006       N  0.55453221  0.60209565  0.27912024    -0.60900
N2007       N  0.53909120  0.58775535  0.38050098    -0.05900
N2008       N  0.54254975  0.61693769  0.38239112    -0.58800
N2009       N  0.58016343  0.54949355  0.37967251    -0.05600
N2010       N  0.60781517  0.55042768  0.37606768    -0.61300
C2011       C  0.61930194  0.56300296  0.43750019     0.95500
C2012       C  0.55192100  0.62569154  0.31858053     0.95300
N2013       N  0.00491931  0.96321861  0.21540124    -0.06800
N2014       N  0.98401719  0.96599257  0.25761516    -0.59400
N2015       N  0.54949886  0.98455847  0.31475802    -0.05000
N2016       N  0.57552385  0.98289125  0.31862186    -0.60600
N2017       N  0.52371344  0.95539196  0.31933643    -0.06900
N2018       N  0.53228009  0.93360803  0.32573615    -0.59600
N2019       N  0.53120447  0.48912259  0.21511912    -0.04600
N2020       N  0.52846369  0.51051654  0.25713560    -0.60700
Mn2021     Mn  0.54662051  0.52810837  0.30496029     1.18400
C2022       C  0.99778792  0.49652564  0.26227789     0.97600
C2023       C  0.56473108  0.95125477  0.32620926     0.98300
N2024       N  0.98020354  0.55338078  0.40407499    -0.06900
N2025       N  0.97680477  0.57805752  0.39139000    -0.63200
N2026       N  0.95037031  0.03121991  0.51075364    -0.05700
N2027       N  0.95376607  0.00730461  0.01048920    -0.63900
N2028       N  0.47869402  0.55660508  0.51366015    -0.06400
N2029       N  0.50048012  0.55019197  0.01116752    -0.63500
N2030       N  0.95148453  0.52652497  0.40641203    -0.05300
N2031       N  0.92904928  0.53344380  0.39532279    -0.64200
Mn2032     Mn  0.52446846  0.55804378  0.46375539     1.10700
C2033       C  0.94517576  0.56573625  0.38603349     0.98800
C2034       C  0.98484341  0.02115171  0.02166217     0.98900
N2035       N  0.95165437  0.92092106  0.39544446    -0.06400
N2036       N  0.94357994  0.89013036  0.39526547    -0.61800
N2037       N  0.91552236  0.96164077  0.37068534    -0.05700
N2038       N  0.88546569  0.95420529  0.36840900    -0.58500
N2039       N  0.92386193  0.94719336  0.31876701    -0.07000
N2040       N  0.89867527  0.92982430  0.28107068    -0.61300
N2041       N  0.93685198  0.92918263  0.44477062    -0.06000
N2042       N  0.91850856  0.90332501  0.48019025    -0.58500
Mn2043     Mn  0.97395217  0.94988212  0.31299771     1.20200
Mn2044     Mn  0.94432016  0.98240898  0.45895126     1.10100
Cl2045     Cl  0.99604601  0.50648638  0.38810024    -0.86500
C2046       C  0.92321498  0.87944743  0.44955347     0.95800
C2047       C  0.87528929  0.93460606  0.31135940     0.95600
N2048       N  0.56839840  0.56197926  0.20248650    -0.06700
N2049       N  0.59368029  0.58090358  0.23974076    -0.58800
N2050       N  0.55243762  0.57327757  0.07214681    -0.06300
N2051       N  0.57013342  0.59835337  0.03486821    -0.60900
N2052       N  0.53800064  0.58254079  0.12204860    -0.05900
N2053       N  0.54557846  0.61305774  0.11835923    -0.58800
N2054       N  0.57629663  0.54560060  0.15553556    -0.05600
N2055       N  0.60614625  0.55295007  0.15950069    -0.61300
C2056       C  0.61688702  0.57480779  0.21314347     0.95500
C2057       C  0.56551812  0.62260165  0.06291618     0.95300
N2058       N  0.00527116  0.96727202  0.96000759    -0.06800
N2059       N  0.98653417  0.96968066  0.50418513    -0.59400
N2060       N  0.54269560  0.97536425  0.07340582    -0.05000
N2061       N  0.56436269  0.96759449  0.08379837    -0.60600
N2062       N  0.51426943  0.94880475  0.06835710    -0.06900
N2063       N  0.51626354  0.92297107  0.07595233    -0.59600
N2064       N  0.53459442  0.49277343  0.96600571    -0.04600
N2065       N  0.53491165  0.51388720  0.51356404    -0.60700
Mn2066     Mn  0.54923417  0.52222905  0.06850716     1.18400
C2067       C  0.00193472  0.50169422  0.51339469     0.97600
C2068       C  0.54736906  0.93478610  0.08629881     0.98300
N2069       N  0.96964461  0.54752776  0.15594088    -0.06900
N2070       N  0.96120202  0.56907976  0.14482103    -0.63200
N2071       N  0.94192265  0.02282510  0.26055926    -0.05700
N2072       N  0.94859399  0.99948384  0.25866304    -0.63900
N2073       N  0.46887585  0.54865327  0.26158989    -0.06400
N2074       N  0.49311754  0.54366320  0.26102791    -0.63500
N2075       N  0.94386955  0.51782311  0.15443506    -0.05300
N2076       N  0.91870084  0.51953393  0.14133164    -0.64200
Mn2077     Mn  0.51643308  0.55467376  0.21064436     1.10700
C2078       C  0.92917725  0.55107582  0.13571130     0.98800
C2079       C  0.97973247  0.01532973  0.26945464     0.98900
N2080       N  0.94726699  0.91830638  0.12779902    -0.06400
N2081       N  0.94563241  0.88990771  0.12538866    -0.61800
N2082       N  0.91077084  0.95964375  0.12598329    -0.05700
N2083       N  0.88173765  0.95529711  0.12743183    -0.58500
N2084       N  0.92000586  0.95246841  0.06517727    -0.07000
N2085       N  0.89638188  0.94376063  0.02394132    -0.61300
N2086       N  0.93706367  0.92550410  0.18648804    -0.06000
N2087       N  0.92821046  0.90123496  0.22594881    -0.58500
Mn2088     Mn  0.96895578  0.95119671  0.05212977     1.20200
Mn2089     Mn  0.94041952  0.97599360  0.21047571     1.10100
Cl2090     Cl  0.99407795  0.49987784  0.13778610    -0.86500
C2091       C  0.93404035  0.87957584  0.18745000     0.95800
C2092       C  0.87333001  0.94641026  0.06293469     0.95600
C2093       C  0.66432466  0.83719570  0.21871538     0.29500
C2094       C  0.66417490  0.83663183  0.37478148     0.29500
C2095       C  0.66561882  0.86623297  0.26761675    -0.06700
C2096       C  0.63556647  0.80914941  0.25890374    -0.07500
C2097       C  0.69177739  0.83586463  0.25265193    -0.07400
C2098       C  0.66547311  0.86592727  0.34177517    -0.06700
C2099       C  0.63546726  0.80895718  0.33294089    -0.07500
C2100       C  0.69153962  0.83535000  0.32677767    -0.07400
C2101       C  0.65649652  0.88807170  0.36865843    -0.32800
N2102       N  0.65054930  0.90086504  0.31798270     0.13700
C2103       C  0.65711326  0.88880878  0.25737967    -0.32800
H2104       H  0.65300394  0.89398315  0.20900133     0.15700
C2105       C  0.61163917  0.77839441  0.34894631    -0.31800
N2106       N  0.59829675  0.75997440  0.29135514     0.12500
C2107       C  0.61189979  0.77853110  0.23742539    -0.31700
C2108       C  0.72197510  0.84322812  0.34063574    -0.32000
N2109       N  0.74073870  0.85024641  0.28270605     0.13000
H2110       H  0.73085571  0.84672577  0.39043047     0.15600
C2111       C  0.72265873  0.84480959  0.22949115    -0.32000
H2112       H  0.73222456  0.84997096  0.17809742     0.15600
H2113       H  0.60670077  0.76933711  0.18534895     0.15600
H2114       H  0.65205345  0.89282275  0.42194125     0.15700
H2115       H  0.60639220  0.76903889  0.39852805     0.15600
C2116       C  0.66433560  0.83668770  0.46842113     0.29500
C2117       C  0.66409314  0.83738401  0.12509145     0.29500
C2118       C  0.63564696  0.83508968  0.51589733    -0.06700
C2119       C  0.66604086  0.80920722  0.50233352    -0.07500
C2120       C  0.69173050  0.86632881  0.50953274    -0.07400
C2121       C  0.63541994  0.83629481  0.09151378    -0.06700
C2122       C  0.66485504  0.80944303  0.07627670    -0.07500
C2123       C  0.69139855  0.86640432  0.08500769    -0.07400
C2124       C  0.61414385  0.84584614  0.11875324    -0.32800
N2125       N  0.60285987  0.85160184  0.56574916     0.13700
C2126       C  0.61412837  0.84452147  0.50517128    -0.32800
H2127       H  0.60925796  0.84906881  0.45692974     0.15700
C2128       C  0.65495233  0.77812796  0.08976511    -0.31800
N2129       N  0.64678252  0.75885906  0.53315519     0.12500
C2130       C  0.65436972  0.77709465  0.47947313    -0.31700
C2131       C  0.72210745  0.88855881  0.10221436    -0.32000
N2132       N  0.74179859  0.89912067  0.54211602     0.13000
H2133       H  0.73121630  0.89289999  0.15191609     0.15600
C2134       C  0.72289145  0.88718389  0.48827875    -0.32000
H2135       H  0.73187963  0.89080284  0.43630292     0.15600
H2136       H  0.64834955  0.76706180  0.42806456     0.15600
H2137       H  0.60964929  0.85032643  0.17202970     0.15700
H2138       H  0.65070798  0.76923202  0.13966153     0.15600
C2139       C  0.62599998  0.72420966  0.03100761    -0.06700
C2140       C  0.63928301  0.70417687  0.02672937    -0.17800
C2141       C  0.62013374  0.67085961  0.03587161     0.10500
C2142       C  0.58671448  0.65715815  0.04838533    -0.06600
C2143       C  0.57345171  0.67735003  0.05167839    -0.17800
C2144       C  0.59277853  0.71071422  0.04313108     0.10600
S2145       S  0.63932839  0.64727275  0.03960091    -0.32800
S2146       S  0.57338105  0.73524859  0.56136703    -0.32800
H2147       H  0.59517236  0.76068496  0.52192962     0.28600
H2148       H  0.67106692  0.67278604  0.03286215     0.28600
H2149       H  0.66491101  0.71512550  0.01915293     0.19200
H2150       H  0.54798838  0.66698503  0.06195961     0.19200
C2151       C  0.77446784  0.91211517  0.04176736    -0.06700
C2152       C  0.78443016  0.89087123  0.05770598    -0.17800
C2153       C  0.81682661  0.90098470  0.06034734     0.10500
C2154       C  0.84001052  0.93271646  0.04461793    -0.06600
C2155       C  0.83022539  0.95351007  0.02494284    -0.17800
C2156       C  0.79828042  0.93606102  0.50016022     0.10600
S2157       S  0.82836115  0.87406082  0.08871322    -0.32800
S2158       S  0.78780366  0.95989061  0.45567086    -0.32800
H2159       H  0.76132937  0.95504328  0.49890075     0.28600
H2160       H  0.79842331  0.84560160  0.08255786     0.28600
H2161       H  0.76652697  0.86657712  0.07057363     0.19200
H2162       H  0.84841098  0.96713497  0.47560980     0.19200
C2163       C  0.58961692  0.87439414  0.07811836    -0.06700
C2164       C  0.55660210  0.85833963  0.58615178    -0.17800
C2165       C  0.54302318  0.88064602  0.10245724     0.10500
C2166       C  0.56158023  0.91385824  0.08828117    -0.06600
C2167       C  0.59442732  0.92713305  0.07307189    -0.17800
C2168       C  0.60867942  0.90794758  0.06883373     0.10600
S2169       S  0.49950902  0.85742068  0.61219656    -0.32800
S2170       S  0.65123226  0.92777861  0.05107913    -0.32800
H2171       H  0.65664108  0.90736409  0.08647709     0.28600
H2172       H  0.49919697  0.83526356  0.15694169     0.28600
H2173       H  0.54243256  0.83230500  0.58897335     0.19200
H2174       H  0.60915413  0.95257857  0.06356781     0.19200
C2175       C  0.58224276  0.72497982  0.28671608    -0.06700
C2176       C  0.59717931  0.70949030  0.24837276    -0.17800
C2177       C  0.58693580  0.67662297  0.25440191     0.10500
C2178       C  0.56071952  0.65847840  0.29914805    -0.06600
C2179       C  0.54450776  0.67355465  0.33394009    -0.17800
C2180       C  0.55486122  0.70635868  0.32797145     0.10600
S2181       S  0.60960452  0.65949513  0.20990505    -0.32800
S2182       S  0.53274532  0.72344240  0.37541544    -0.32800
H2183       H  0.54229959  0.74883614  0.33301265     0.28600
H2184       H  0.63552117  0.68864647  0.18756675     0.28600
H2185       H  0.61832171  0.72388094  0.21706904     0.19200
H2186       H  0.52406708  0.65988718  0.36778673     0.19200
C2187       C  0.77487966  0.87102950  0.28254146    -0.06700
C2188       C  0.79422875  0.85788631  0.29038797    -0.17800
C2189       C  0.82700590  0.87804042  0.30002584     0.10500
C2190       C  0.84107518  0.91214756  0.29959102    -0.06600
C2191       C  0.82177080  0.92524864  0.29067927    -0.17800
C2192       C  0.78882441  0.90507154  0.28267513     0.10600
S2193       S  0.84885775  0.85893117  0.31897648    -0.32800
S2194       S  0.76425969  0.92295502  0.27749631    -0.32800
H2195       H  0.78945439  0.95479434  0.26893409     0.28600
H2196       H  0.86701286  0.88288327  0.36914585     0.28600
H2197       H  0.78339148  0.83188246  0.29226091     0.19200
H2198       H  0.83244536  0.95135683  0.29167902     0.19200
C2199       C  0.58667515  0.93811253  0.32805629    -0.06700
C2200       C  0.61750649  0.95515173  0.29679105    -0.17800
C2201       C  0.63940795  0.94423062  0.29576085     0.10500
C2202       C  0.63058368  0.91536293  0.32582696    -0.06600
C2203       C  0.60014320  0.89864067  0.35841202    -0.17800
C2204       C  0.57836665  0.90980368  0.36054314     0.10600
S2205       S  0.67842741  0.96820506  0.25591099    -0.32800
S2206       S  0.54085534  0.88720607  0.40690441    -0.32800
H2207       H  0.54042647  0.91490588  0.43736386     0.28600
H2208       H  0.69430233  0.95857914  0.29535685     0.28600
H2209       H  0.62466443  0.97716300  0.27244739     0.19200
H2210       H  0.59310962  0.87637401  0.38146680     0.17000
C2211       C  0.86711954  0.59201633  0.16076691    -0.06700
C2212       C  0.85389896  0.55858129  0.15985020    -0.17800
C2213       C  0.87306129  0.54426497  0.15049685     0.10500
C2214       C  0.90692627  0.56422567  0.14104230    -0.06600
C2215       C  0.91990460  0.59788208  0.14007748    -0.17800
C2216       C  0.90056553  0.61201200  0.15064897     0.10600
S2217       S  0.85295079  0.50069845  0.15458643    -0.32800
S2218       S  0.92048476  0.65569743  0.15166306    -0.32800
H2219       H  0.89626977  0.66024950  0.18511314     0.28600
H2220       H  0.82129291  0.49415072  0.15536908     0.28600
H2221       H  0.82829472  0.54380772  0.16777538     0.19200
H2222       H  0.94546583  0.61350468  0.13264094     0.19200
C2223       C  0.90097927  0.77898577  0.20178743    -0.06700
C2224       C  0.88018506  0.78892497  0.18389658    -0.17800
C2225       C  0.89002809  0.82185228  0.18257422     0.10500
C2226       C  0.92092443  0.84547818  0.20179833    -0.06600
C2227       C  0.94130781  0.83568034  0.22281875    -0.17800
C2228       C  0.93185834  0.80263558  0.22155528     0.10600
S2229       S  0.86372835  0.83365692  0.15296322    -0.32800
S2230       S  0.96066253  0.79202707  0.24099168    -0.32800
H2231       H  0.94859256  0.76313102  0.19885026     0.28600
H2232       H  0.83798875  0.80213574  0.13952179     0.28600
H2233       H  0.85638385  0.77061640  0.16943807     0.19200
H2234       H  0.96537345  0.85386994  0.23627379     0.19200
C2235       C  0.65162384  0.59445662  0.22679824    -0.06700
C2236       C  0.67105795  0.58228356  0.19622168    -0.17800
C2237       C  0.70427081  0.60086142  0.19581511     0.10500
C2238       C  0.71910308  0.63362182  0.22161612    -0.06600
C2239       C  0.70015237  0.64517022  0.25739684    -0.17800
C2240       C  0.66668617  0.62546890  0.26289266     0.10600
S2241       S  0.72620582  0.58067221  0.16475042    -0.32800
S2242       S  0.64546328  0.64107376  0.31873133    -0.32800
H2243       H  0.62431847  0.61136619  0.34639131     0.28600
H2244       H  0.75118268  0.59806874  0.20932416     0.28600
H2245       H  0.66029399  0.55780716  0.17249961     0.19200
H2246       H  0.71158456  0.66944036  0.28204165     0.19200
C2247       C  0.93063960  0.58700463  0.39531868    -0.06700
C2248       C  0.94803234  0.61810819  0.42893739    -0.17800
C2249       C  0.93609535  0.63955963  0.43934859     0.10500
C2250       C  0.90611670  0.63028242  0.41529290    -0.06600
C2251       C  0.88841812  0.59908173  0.38279785    -0.17800
C2252       C  0.90015411  0.57743678  0.37291890     0.10600
S2253       S  0.96016404  0.67843464  0.48357853    -0.32800
S2254       S  0.87511305  0.53816018  0.33125728    -0.32800
H2255       H  0.89997651  0.53901765  0.28774134     0.28600
H2256       H  0.94938282  0.69521433  0.45002479     0.28600
H2257       H  0.97116126  0.62585487  0.44795203     0.19200
H2258       H  0.86711476  0.59451290  0.86205592     0.19200
C2259       C  0.85951965  0.77699927  0.46385749    -0.06700
C2260       C  0.89258223  0.78953646  0.45607902    -0.17800
C2261       C  0.91384401  0.82282841  0.45355682     0.10500
C2262       C  0.90198631  0.84451504  0.45984527    -0.06600
C2263       C  0.86883147  0.83200270  0.46910503    -0.17800
C2264       C  0.84744174  0.79843131  0.47006332     0.10600
S2265       S  0.95575617  0.83594079  0.44106231    -0.32800
S2266       S  0.80336548  0.78390303  0.99176475    -0.32800
H2267       H  0.79493821  0.75376848  0.01495015     0.28600
H2268       H  0.96642261  0.86544840  0.48078409     0.28600
H2269       H  0.90175575  0.77295039  0.45063547     0.19200
H2270       H  0.85941403  0.84833966  0.47277287     0.19200
C2271       C  0.65251187  0.57349957  0.45242208    -0.06700
C2272       C  0.67537554  0.60640785  0.44954469    -0.17800
C2273       C  0.70611356  0.61838392  0.94677227     0.10500
C2274       C  0.71846219  0.59495471  0.45445303    -0.06600
C2275       C  0.69566829  0.56192355  0.45763847    -0.17800
C2276       C  0.66283894  0.55097870  0.45685340     0.10600
S2277       S  0.73227688  0.66159596  0.94372513    -0.32800
S2278       S  0.63542051  0.50788749  0.45828561    -0.32800
H2279       H  0.60889503  0.51014810  0.48625921     0.28600
H2280       H  0.75634211  0.66399527  0.98162788     0.28600
H2281       H  0.66559834  0.62314229  0.93254892     0.19200
H2282       H  0.70357363  0.54456631  0.45911500     0.19200
C2283       C  0.82977056  0.66607996  0.52360209     0.29500
C2284       C  0.82941519  0.66629937  0.86752643     0.29500
C2285       C  0.85839573  0.66679166  0.47585603    -0.06700
C2286       C  0.80209893  0.63683197  0.48187054    -0.07500
C2287       C  0.82873022  0.69382406  0.48935757    -0.07400
C2288       C  0.85767788  0.66696870  0.90234124    -0.06700
C2289       C  0.80121359  0.63727444  0.90692685    -0.07500
C2290       C  0.82844626  0.69416356  0.91600915    -0.07400
C2291       C  0.88068952  0.65957869  0.87604964    -0.32800
N2292       N  0.89302472  0.65306079  0.92669337     0.13700
C2293       C  0.88057121  0.65776967  0.48607911    -0.32800
H2294       H  0.88602216  0.65375323  0.53424632     0.15700
C2295       C  0.76958625  0.61783575  0.89079485    -0.31800
N2296       N  0.75196168  0.60521954  0.44902733     0.12500
C2297       C  0.77084458  0.61636250  0.50283034    -0.31700
C2298       C  0.83354237  0.72411191  0.90347338    -0.32000
N2299       N  0.83921872  0.74238438  0.46121020     0.13000
H2300       H  0.83719690  0.73323320  0.85401453     0.15600
C2301       C  0.83489560  0.72441285  0.51385374    -0.32000
H2302       H  0.83888932  0.73395357  0.56553764     0.15600
H2303       H  0.76184035  0.61301103  0.55469821     0.15600
H2304       H  0.88660027  0.65671128  0.82287801     0.15700
H2305       H  0.76037883  0.61404955  0.84149023     0.15600
C2306       C  0.83003060  0.66693109  0.77396271     0.29500
C2307       C  0.82927230  0.66659738  0.61791021     0.29500
C2308       C  0.82858451  0.63772034  0.72539060    -0.06700
C2309       C  0.80281635  0.66861522  0.74084757    -0.07500
C2310       C  0.85863323  0.69490094  0.73344851    -0.07400
C2311       C  0.82800584  0.63760690  0.65108713    -0.06700
C2312       C  0.80191016  0.66791961  0.66685589    -0.07500
C2313       C  0.85835599  0.69450474  0.65897883    -0.07400
C2314       C  0.83879263  0.61718528  0.62325686    -0.32800
N2315       N  0.84790182  0.60705237  0.67312516     0.13700
C2316       C  0.84055700  0.61779012  0.73427474    -0.32800
H2317       H  0.84590697  0.61321508  0.78198658     0.15700
C2318       C  0.77101244  0.66020683  0.65622527    -0.31800
N2319       N  0.75390071  0.65610450  0.71660263     0.12500
C2320       C  0.77346291  0.66299304  0.76749814    -0.31700
C2321       C  0.87895852  0.72604132  0.64331161    -0.32000
N2322       N  0.89023451  0.74548566  0.70086715     0.13000
H2323       H  0.88255313  0.73509041  0.59382938     0.15600
C2324       C  0.87896066  0.72690726  0.75482813    -0.32000
H2325       H  0.88228855  0.73674068  0.80699760     0.15600
H2326       H  0.76568490  0.66055631  0.82036021     0.15600
H2327       H  0.84242991  0.61213047  0.56991298     0.15700
H2328       H  0.76065087  0.65503728  0.60760263     0.15600
N2329       N  0.57250429  0.55984392  0.93537651    -0.06700
N2330       N  0.59709855  0.56832534  0.97332731    -0.58800
N2331       N  0.54488936  0.58045980  0.82208669    -0.06300
N2332       N  0.55262691  0.60418460  0.78174723    -0.60900
N2333       N  0.53835445  0.58964672  0.88341066    -0.05900
N2334       N  0.54188681  0.61893368  0.88642610    -0.58800
N2335       N  0.57848542  0.54937197  0.87531792    -0.05600
N2336       N  0.60628546  0.55057209  0.87048601    -0.61300
C2337       C  0.61761141  0.56211974  0.93253075     0.95500
C2338       C  0.55072098  0.62789070  0.82241857     0.95300
N2339       N  0.00498619  0.96103539  0.72155528    -0.06800
N2340       N  0.98305184  0.96443763  0.75884100    -0.59400
N2341       N  0.54584294  0.98349917  0.81719131    -0.05000
N2342       N  0.57225166  0.98225489  0.81976128    -0.60600
N2343       N  0.52054476  0.95426191  0.82552365    -0.06900
N2344       N  0.52971729  0.93303688  0.83271536    -0.59600
N2345       N  0.53270646  0.48845875  0.72008367    -0.04600
N2346       N  0.52833109  0.51048175  0.75654577    -0.60700
Mn2347     Mn  0.54408333  0.53018106  0.80220455     1.18400
C2348       C  0.99602420  0.49491690  0.76235822     0.97600
C2349       C  0.56215442  0.95096366  0.83026906     0.98300
N2350       N  0.98008512  0.55415023  0.90592457    -0.06900
N2351       N  0.97718920  0.57926991  0.89418648    -0.63200
N2352       N  0.94945157  0.03228592  0.01069193    -0.05700
N2353       N  0.95503302  0.00644353  0.50939753    -0.63900
N2354       N  0.47733263  0.55673986  0.01204658    -0.06400
N2355       N  0.50189224  0.55008103  0.51124752    -0.63500
N2356       N  0.95116022  0.52746895  0.90742254    -0.05300
N2357       N  0.92908969  0.53496463  0.89654097    -0.64200
Mn2358     Mn  0.52313181  0.55800891  0.96372993     1.10700
C2359       C  0.94567345  0.56740769  0.88827260     0.98800
C2360       C  0.98602763  0.02044545  0.52129895     0.98900
N2361       N  0.94899795  0.92099416  0.89724526    -0.06400
N2362       N  0.94041117  0.89008772  0.89661071    -0.61800
N2363       N  0.91410335  0.96272076  0.87387824    -0.05700
N2364       N  0.88413125  0.95555616  0.87229272    -0.58500
N2365       N  0.92212106  0.94808260  0.82181033    -0.07000
N2366       N  0.89684376  0.93095751  0.78436720    -0.61300
N2367       N  0.93451475  0.92952998  0.94681983    -0.06000
N2368       N  0.91580366  0.90368314  0.98202876    -0.58500
Mn2369     Mn  0.97168779  0.94993538  0.81539880     1.20200
Mn2370     Mn  0.94296098  0.98305344  0.96142429     1.10100
Cl2371     Cl  0.99613028  0.50494473  0.88773119    -0.86500
C2372       C  0.92006924  0.87959633  0.95091366     0.95800
C2373       C  0.87370963  0.93601590  0.81531051     0.95600
N2374       N  0.56776005  0.56374133  0.70480278    -0.06700
N2375       N  0.59315707  0.58419585  0.74084648    -0.58800
N2376       N  0.55288010  0.57375055  0.57349225    -0.06300
N2377       N  0.57078560  0.59891165  0.53664297    -0.60900
N2378       N  0.53744277  0.58261276  0.62170363    -0.05900
N2379       N  0.54462283  0.61296336  0.61735431    -0.58800
N2380       N  0.57620863  0.54718349  0.65933876    -0.05600
N2381       N  0.60639814  0.55580336  0.66325175    -0.61300
C2382       C  0.61694573  0.57866331  0.71510663     0.95500
C2383       C  0.56539337  0.62281583  0.56323361     0.95300
N2384       N  0.00683877  0.96691377  0.46081027    -0.06800
N2385       N  0.98508984  0.97020796  0.00362301    -0.59400
N2386       N  0.54275638  0.97359431  0.57712150    -0.05000
N2387       N  0.56409535  0.96549891  0.58827330    -0.60600
N2388       N  0.51449231  0.94713418  0.56869501    -0.06900
N2389       N  0.51629125  0.92106958  0.57464196    -0.59600
N2390       N  0.53686563  0.49311094  0.46848007    -0.04600
N2391       N  0.53313317  0.51352860  0.01189904    -0.60700
Mn2392     Mn  0.55028731  0.52303959  0.57098899     1.18400
C2393       C  0.00142990  0.50021049  0.01319023     0.97600
C2394       C  0.54704040  0.93257026  0.58762018     0.98300
N2395       N  0.96960818  0.54749815  0.65750959    -0.06900
N2396       N  0.96174491  0.56948656  0.64657022    -0.63200
N2397       N  0.94212514  0.02274096  0.75954227    -0.05700
N2398       N  0.94818216  0.99889958  0.75651280    -0.63900
N2399       N  0.46741429  0.54725089  0.76079443    -0.06400
N2400       N  0.49213875  0.54291626  0.75924476    -0.63500
N2401       N  0.94363810  0.51795288  0.65464559    -0.05300
N2402       N  0.91883668  0.52023136  0.64113268    -0.64200
Mn2403     Mn  0.51512414  0.55473824  0.70967973     1.10700
C2404       C  0.92983151  0.55196142  0.63634506     0.98800
C2405       C  0.97922867  0.01415196  0.76794827     0.98900
N2406       N  0.94606920  0.91779656  0.63007236    -0.06400
N2407       N  0.94326267  0.88893779  0.62935206    -0.61800
N2408       N  0.91184434  0.96036336  0.62084748    -0.05700
N2409       N  0.88294970  0.95613463  0.62011979    -0.58500
N2410       N  0.92124833  0.95194822  0.56150491    -0.07000
N2411       N  0.89783778  0.94245701  0.51917643    -0.61300
N2412       N  0.93522432  0.92547481  0.68743908    -0.06000
N2413       N  0.92483769  0.90122273  0.72769874    -0.58500
Mn2414     Mn  0.96984392  0.94998917  0.55285812     1.20200
Mn2415     Mn  0.93985670  0.97604946  0.70802865     1.10100
Cl2416     Cl  0.99335042  0.49975412  0.63770141    -0.86500
C2417       C  0.93034062  0.87898421  0.69103845     0.95800
C2418       C  0.87468623  0.94583364  0.55579756     0.95600
C2419       C  0.66425471  0.83799857  0.71882630     0.29500
C2420       C  0.66311455  0.83773651  0.87531361     0.29500
C2421       C  0.66616415  0.86765321  0.76670362    -0.06700
C2422       C  0.63474082  0.81067218  0.75905009    -0.07500
C2423       C  0.69076295  0.83566117  0.75421988    -0.07400
C2424       C  0.66562287  0.86754355  0.84121700    -0.06700
C2425       C  0.63422374  0.81061947  0.83324418    -0.07500
C2426       C  0.68992909  0.83519829  0.82849929    -0.07400
C2427       C  0.65569310  0.88916939  0.86665420    -0.32800
N2428       N  0.64957340  0.90150686  0.81532004     0.13700
C2429       C  0.65683146  0.88955829  0.75535272    -0.32800
H2430       H  0.65251898  0.89414327  0.70651416     0.15700
C2431       C  0.60994969  0.78034468  0.84938912    -0.31800
N2432       N  0.59655156  0.76190715  0.79181799     0.12500
C2433       C  0.61069286  0.78027685  0.73770913    -0.31700
C2434       C  0.72016348  0.84344377  0.84413500    -0.32000
N2435       N  0.73947193  0.85095214  0.78721492     0.13000
H2436       H  0.72858272  0.84736062  0.89460847     0.15600
C2437       C  0.72189470  0.84512346  0.73291801    -0.32000
H2438       H  0.73185168  0.85033664  0.68198998     0.15600
H2439       H  0.60577559  0.77104012  0.68564858     0.15600
H2440       H  0.65059546  0.89369628  0.91950225     0.15700
H2441       H  0.60460016  0.77112155  0.89916396     0.15600
C2442       C  0.66336200  0.83742175  0.96903326     0.29500
C2443       C  0.66481723  0.83772134  0.62466823     0.29500
C2444       C  0.63517821  0.83653504  0.01729887    -0.06700
C2445       C  0.66401394  0.80906200  0.00197934    -0.07500
C2446       C  0.69130539  0.86641855  0.01085670    -0.07400
C2447       C  0.63588333  0.83540171  0.59022756    -0.06700
C2448       C  0.66629882  0.80983508  0.57702897    -0.07500
C2449       C  0.69190896  0.86689473  0.58390365    -0.07400
C2450       C  0.61441628  0.84468955  0.61679759    -0.32800
N2451       N  0.60275052  0.85335781  0.06822667     0.13700
C2452       C  0.61403200  0.84655252  0.00737133    -0.32800
H2453       H  0.60910951  0.85130328  0.95941909     0.15700
C2454       C  0.65481855  0.77826664  0.59119912    -0.31800
N2455       N  0.64670490  0.75874551  0.03164877     0.12500
C2456       C  0.65249988  0.77696073  0.97861822    -0.31700
C2457       C  0.72311481  0.88811549  0.59951244    -0.32000
N2458       N  0.74077603  0.90079610  0.04555887     0.13000
H2459       H  0.73236993  0.89248912  0.64905248     0.15600
C2460       C  0.72232553  0.88853910  0.99084600    -0.32000
H2461       H  0.73172038  0.89305655  0.93918358     0.15600
H2462       H  0.64586847  0.76691634  0.92746186     0.15600
H2463       H  0.60995380  0.84952531  0.66992627     0.15700
H2464       H  0.64933566  0.76937447  0.64128508     0.15600
C2465       C  0.62558022  0.72445984  0.53177711    -0.06700
C2466       C  0.63861522  0.70418505  0.52358256    -0.17800
C2467       C  0.61966101  0.67097089  0.53340334     0.10500
C2468       C  0.58644038  0.65739822  0.54890781    -0.06600
C2469       C  0.57336416  0.67779619  0.55579150    -0.17800
C2470       C  0.59248918  0.71108633  0.54756999     0.10600
S2471       S  0.63929397  0.64783941  0.53692459    -0.32800
S2472       S  0.57534714  0.73643091  0.04996659    -0.32800
H2473       H  0.54364476  0.71195152  0.06326467     0.28600
H2474       H  0.67030810  0.67212002  0.51790325     0.28600
H2475       H  0.66413602  0.71502590  0.51382880     0.19200
H2476       H  0.54811507  0.66780223  0.56886587     0.19200
C2477       C  0.77545662  0.90965807  0.53747161    -0.06700
C2478       C  0.78578396  0.89224969  0.57002674    -0.17800
C2479       C  0.81800059  0.90198435  0.57124276     0.10500
C2480       C  0.84101578  0.92955480  0.53797035    -0.06600
C2481       C  0.83082338  0.94558858  0.50038399    -0.17800
C2482       C  0.79766972  0.94370910  0.02424082     0.10600
S2483       S  0.82839176  0.87922136  0.61953882    -0.32800
S2484       S  0.78757989  0.97327052  0.00503649    -0.32800
H2485       H  0.75532852  0.95686544  0.02748263     0.28600
H2486       H  0.85590714  0.88493382  0.57923543     0.28600
H2487       H  0.76851959  0.87090530  0.59541134     0.19200
H2488       H  0.84803876  0.97822214  0.01437303     0.19200
C2489       C  0.58951242  0.87236706  0.57497486    -0.06700
C2490       C  0.55725792  0.86130953  0.09632408    -0.17800
C2491       C  0.54207189  0.87736897  0.59366859     0.10500
C2492       C  0.56108851  0.91144433  0.58835462    -0.06600
C2493       C  0.59435467  0.92551473  0.58017647    -0.17800
C2494       C  0.60884478  0.90652060  0.57408854     0.10600
S2495       S  0.50133169  0.86210412  0.12908511    -0.32800
S2496       S  0.65196353  0.92799218  0.56562790    -0.32800
H2497       H  0.65725217  0.90199107  0.56598843     0.28600
H2498       H  0.49330316  0.82523270  0.60480075     0.28600
H2499       H  0.54310152  0.83569517  0.10455504     0.19200
H2500       H  0.60928856  0.95152633  0.57739674     0.19200
C2501       C  0.57995394  0.72686668  0.78779864    -0.06700
C2502       C  0.59367563  0.71076744  0.74719820    -0.17800
C2503       C  0.58393881  0.67815320  0.75481955     0.10500
C2504       C  0.55913339  0.66066720  0.80304916    -0.06600
C2505       C  0.54383916  0.67624352  0.83993255    -0.17800
C2506       C  0.55384272  0.70888024  0.83256298     0.10600
S2507       S  0.60608453  0.66085165  0.70852831    -0.32800
S2508       S  0.53311664  0.72673871  0.88294823    -0.32800
H2509       H  0.54179119  0.75190118  0.84048902     0.28600
H2510       H  0.62994573  0.68920312  0.67909049     0.28600
H2511       H  0.61388167  0.72463796  0.71321566     0.19200
H2512       H  0.52446299  0.66315066  0.87643669     0.19200
C2513       C  0.77344429  0.87202029  0.78892087    -0.06700
C2514       C  0.79243566  0.85936673  0.80318324    -0.17800
C2515       C  0.82520961  0.87965815  0.81199641     0.10500
C2516       C  0.83951928  0.91339332  0.80530598    -0.06600
C2517       C  0.82057772  0.92605648  0.79086504    -0.17800
C2518       C  0.78773857  0.90589034  0.78334333     0.10600
S2519       S  0.84710992  0.86124873  0.83466828    -0.32800
S2520       S  0.76542249  0.92519933  0.76928239    -0.32800
H2521       H  0.73795786  0.90487285  0.80791179     0.28600
H2522       H  0.86592253  0.88670892  0.88165993     0.28600
H2523       H  0.78139460  0.83362617  0.80935094     0.19200
H2524       H  0.83137700  0.95195280  0.78655993     0.19200
C2525       C  0.58444904  0.93790379  0.82963143    -0.06700
C2526       C  0.61511869  0.95532140  0.79781622    -0.17800
C2527       C  0.63719382  0.94441535  0.79401708     0.10500
C2528       C  0.62883566  0.91523223  0.82243505    -0.06600
C2529       C  0.59840799  0.89790730  0.85473891    -0.17800
C2530       C  0.57640669  0.90890746  0.85921103     0.10600
S2531       S  0.67571242  0.96894034  0.75265320    -0.32800
S2532       S  0.53893133  0.88504107  0.90471026    -0.32800
H2533       H  0.53857098  0.91205535  0.93947798     0.28600
H2534       H  0.69227198  0.95818118  0.78676877     0.28600
H2535       H  0.62204984  0.97769433  0.77516111     0.19200
H2536       H  0.59161755  0.87531799  0.87621871     0.17000
C2537       C  0.86879505  0.59396129  0.66213118    -0.06700
C2538       C  0.85520532  0.56044730  0.65558708    -0.17800
C2539       C  0.87408047  0.54587229  0.64674723     0.10500
C2540       C  0.90806684  0.56565332  0.64161557    -0.06600
C2541       C  0.92153817  0.59953263  0.64620351    -0.17800
C2542       C  0.90244627  0.61393255  0.65734183     0.10600
S2543       S  0.85332611  0.50209952  0.64582123    -0.32800
S2544       S  0.92302597  0.65776334  0.66680404    -0.32800
H2545       H  0.89670061  0.66231860  0.67232462     0.28600
H2546       H  0.82264505  0.49682846  0.66605598     0.28600
H2547       H  0.82943225  0.54573747  0.65886835     0.19200
H2548       H  0.94725772  0.61506780  0.64283115     0.19200
C2549       C  0.89980527  0.77939466  0.70565260    -0.06700
C2550       C  0.87940082  0.78832725  0.68123269    -0.17800
C2551       C  0.88791652  0.82090449  0.68102811     0.10500
C2552       C  0.91703782  0.84518449  0.70731980    -0.06600
C2553       C  0.93639490  0.83636987  0.73678032    -0.17800
C2554       C  0.92828758  0.80367839  0.73529624     0.10600
S2555       S  0.86197460  0.83145889  0.64530003    -0.32800
S2556       S  0.95605083  0.79466322  0.76756509    -0.32800
H2557       H  0.94798618  0.76647525  0.72470932     0.28600
H2558       H  0.83805598  0.79961391  0.62658232     0.28600
H2559       H  0.85697142  0.76964617  0.66161737     0.19200
H2560       H  0.95894458  0.85512067  0.75668669     0.19200
C2561       C  0.65179994  0.59829937  0.72927506    -0.06700
C2562       C  0.67083948  0.58507461  0.70180401    -0.17800
C2563       C  0.70410953  0.60304214  0.70153890     0.10500
C2564       C  0.71960191  0.63618977  0.72425688    -0.06600
C2565       C  0.70106935  0.64889433  0.75758019    -0.17800
C2566       C  0.66741414  0.62989393  0.76275900     0.10600
S2567       S  0.72540248  0.58182548  0.67374126    -0.32800
S2568       S  0.64646191  0.64695413  0.81474259    -0.32800
H2569       H  0.62481873  0.61787276  0.84469980     0.28600
H2570       H  0.74997219  0.59915400  0.71922150     0.28600
H2571       H  0.65970860  0.56021195  0.68024008     0.19200
H2572       H  0.71291978  0.67356993  0.78019708     0.19200
C2573       C  0.93150159  0.58906301  0.89701200    -0.06700
C2574       C  0.94835805  0.61970659  0.93288111    -0.17800
C2575       C  0.93652849  0.64131604  0.94276261     0.10500
C2576       C  0.90704505  0.63245774  0.91648806    -0.06600
C2577       C  0.89002549  0.60179963  0.88147130    -0.17800
C2578       C  0.90184902  0.58026745  0.87129576     0.10600
S2579       S  0.96032878  0.67991736  0.98840275    -0.32800
S2580       S  0.87828308  0.54232566  0.82368980    -0.32800
H2581       H  0.90450668  0.54497772  0.78269042     0.28600
H2582       H  0.94839513  0.69678248  0.95899901     0.28600
H2583       H  0.97098776  0.62697200  0.95378362     0.19200
H2584       H  0.86502803  0.59144566  0.36544902     0.19200
C2585       C  0.85777852  0.77716858  0.96619472    -0.06700
C2586       C  0.89071842  0.79000271  0.95443425    -0.17800
C2587       C  0.91156993  0.82336245  0.95296332     0.10500
C2588       C  0.89938183  0.84476290  0.96235774    -0.06600
C2589       C  0.86637685  0.83196260  0.97554424    -0.17800
C2590       C  0.84544843  0.79835653  0.97770354     0.10600
S2591       S  0.95346722  0.83697167  0.93863213    -0.32800
S2592       S  0.80527987  0.78462624  0.47609097    -0.32800
H2593       H  0.79386251  0.75154374  0.48196336     0.28600
H2594       H  0.96410218  0.86631116  0.97893218     0.28600
H2595       H  0.90012695  0.77362935  0.94575759     0.19200
H2596       H  0.85670578  0.84807908  0.98165293     0.19200
C2597       C  0.65110864  0.57364196  0.94672670    -0.06700
C2598       C  0.67349052  0.60656537  0.94203723    -0.17800
C2599       C  0.70795432  0.61748672  0.45218452     0.10500
C2600       C  0.71712386  0.59652508  0.95277122    -0.06600
C2601       C  0.69467252  0.56355642  0.95903767    -0.17800
C2602       C  0.66171259  0.55188347  0.95595577     0.10600
S2603       S  0.73481481  0.66058303  0.44885169    -0.32800
S2604       S  0.63329295  0.50917277  0.96171859    -0.32800
H2605       H  0.65572684  0.49935102  0.96706336     0.28600
H2606       H  0.75807510  0.66261472  0.48864656     0.28600
H2607       H  0.66797713  0.62352293  0.44161890     0.19200
H2608       H  0.70314114  0.54697429  0.96427697     0.19200
loop_ 
_geom_bond_atom_site_label_1 
_geom_bond_atom_site_label_2 
_geom_bond_distance 
_geom_bond_site_symmetry_2 
_ccdc_geom_bond_type 
C1            C3   1.590   1_554  S
C1            C5   1.582   1_554  S
C1            C4   1.587   1_554  S
C1           C25   1.865       .  S
C2            C6   1.582       .  S
C2            C8   1.585       .  S
C2            C7   1.584       .  S
C2           C24   1.862       .  S
C3           C11   1.386       .  A
C3          C332   1.470       .  A
C4           C15   1.378       .  A
C4          C333   1.476       .  A
C5           C19   1.376   1_556  A
C5          C334   1.467       .  A
C6            C9   1.378       .  A
C6          C329   1.473       .  A
C7           C13   1.378       .  A
C7          C330   1.477       .  A
C8           C16   1.380       .  A
C8          C331   1.469       .  A
C9           N10   1.356       .  A
C9           H22   1.077       .  S
N10         C337   1.357       .  A
N10         C294   1.442       .  S
C11         N336   1.360       .  A
C11          H12   1.078   1_556  S
C13         N340   1.356       .  A
C13          H23   1.080       .  S
N14          C15   1.355       .  A
N14         C339   1.356       .  A
N14         C644   1.439       .  S
C15          H21   1.075   1_556  S
C16         N343   1.359       .  A
C16          H18   1.080       .  S
N17          C19   1.358   1_556  A
N17         C342   1.358       .  A
N17         C629   1.436       .  S
C19          H20   1.080       .  S
C24          C26   1.581       .  S
C24          C28   1.584       .  S
C24          C27   1.576       .  S
C25          C29   1.577       .  S
C25          C31   1.583       .  S
C25          C30   1.587       .  S
C26          C34   1.377       .  A
C26          C29   1.477       .  A
C27          C38   1.372       .  A
C27          C30   1.470       .  A
C28          C42   1.380       .  A
C28          C31   1.479       .  A
C29          C32   1.376       .  A
C30          C36   1.381       .  A
C31          C39   1.374       .  A
C32          N33   1.351       .  A
C32          H45   1.077       .  S
N33          C34   1.351       .  A
N33         C255   1.433       .  S
C34          H35   1.079       .  S
C36          N37   1.361       .  A
C36          H46   1.080       .  S
N37          C38   1.353       .  A
N37         C282   1.439       .  S
C38          H44   1.076       .  S
C39          N40   1.356       .  A
C39          H41   1.080       .  S
N40          C42   1.356       .  A
N40         C267   1.438       .  S
C42          H43   1.078       .  S
N47          N48   1.333       .  A
N47          N53   1.305       .  A
N47         Mn76   2.369       .  S
N48          C55   1.353       .  A
N49          N51   1.314       .  A
N49          N50   1.331       .  A
N49         Mn65   2.362       .  S
N50          C56   1.353       .  A
N51          N52   1.318       .  A
N51         Mn76   2.128       .  S
N52          C56   1.343       .  A
N53          N54   1.316       .  A
N53         Mn65   2.068       .  S
N54          C55   1.336       .  A
C55         C315   1.468       .  S
C56         C222   1.484       .  S
N57          N58   1.301       .  A
N57        N2019   1.325       .  A
N57         Mn87   2.277       .  S
N58         C718   1.329       .  A
N59          N60   1.320       .  A
N59          N61   1.329       .  A
N59        Mn717   2.399       .  S
N60          C67   1.352       .  A
N61          N62   1.324       .  A
N61       Mn1391   2.290   1_455  S
N62          C67   1.359       .  A
N63          N64   1.307   1_565  A
N63        N2013   1.325       .  A
N63         Mn65   2.298   1_565  S
N64        C1370   1.332   1_445  A
Mn65        N711   2.342   1_545  S
Mn65      Cl1393   2.610   1_455  S
C66         N710   1.333       .  A
C66        N1368   1.329   1_565  A
C66         C775   1.444   1_565  S
C67         C243   1.488       .  S
N68          N69   1.327       .  A
N68          N74   1.338       .  A
N68       Mn1380   2.406       .  S
N69          C77   1.351       .  A
N70        N2028   1.339       .  A
N70         N397   1.315       .  A
N70         Mn88   2.327       .  S
N71          C78   1.338       .  A
N71         N396   1.315       .  A
N72        N2026   1.340       .  A
N72         N399   1.312   1_655  A
N72         Mn76   2.318   1_655  S
N73        C2034   1.336   1_455  A
N73         N398   1.311   1_455  A
N74          N75   1.334       .  A
N74        Mn740   2.392   1_545  S
N75          C77   1.360       .  A
Mn76       N1372   2.407   1_455  S
Mn76      Cl1393   2.558   1_455  S
C77         C291   1.495       .  S
C78        N2029   1.337       .  A
C78        C1089   1.445       .  S
N79          N80   1.321       .  A
N79          N85   1.304       .  A
N79         Mn87   2.097       .  S
N80          C90   1.343       .  A
N81          N82   1.322       .  A
N81          N83   1.325       .  A
N81         Mn88   2.156       .  S
N82          C91   1.344       .  A
N83          N84   1.326       .  A
N83         Mn87   2.374       .  S
N84          C91   1.345       .  A
N85          N86   1.331       .  A
N85         Mn88   2.377       .  S
N86          C90   1.347       .  A
Mn87       N1365   2.261       .  S
Mn87       Cl741   2.690       .  S
Mn88        N726   2.400       .  S
Mn88       Cl741   2.561       .  S
Cl89      Mn1369   2.624       .  S
Cl89      Mn1380   2.557       .  S
Cl89       Mn739   2.675   1_545  S
Cl89       Mn740   2.566   1_545  S
C90         C306   1.479       .  S
C91         C234   1.477       .  S
N92          N93   1.333       .  A
N92          N98   1.309       .  A
N92        Mn121   2.349       .  S
N93         C100   1.353       .  A
N94          N96   1.326       .  A
N94          N95   1.325       .  A
N94        Mn110   2.357       .  S
N95         C101   1.346       .  A
N96          N97   1.323       .  A
N96        Mn121   2.177       .  S
N97         C101   1.348       .  A
N98          N99   1.315       .  A
N98        Mn110   2.116       .  S
N99         C100   1.343       .  A
C100        C279   1.492       .  S
C101        C186   1.485       .  S
N102       N2064   1.325       .  A
N102        N429   1.297   1_556  A
N102       Mn132   2.320   1_556  S
N103        C763   1.332       .  A
N103        N428   1.297       .  A
N104        N105   1.322       .  A
N104        N106   1.325       .  A
N104       Mn762   2.243       .  S
N105        C112   1.358       .  A
N106        N107   1.314       .  A
N106      Mn1436   2.258   1_455  S
N107        C112   1.348       .  A
N108       N2058   1.325       .  A
N108        N435   1.298   1_566  A
N108       Mn110   2.298   1_566  S
N109       C1415   1.329       .  A
N109        N434   1.297   1_545  A
Mn110       N756   2.254   1_545  S
Mn110     Cl1438   2.688   1_455  S
C111        N755   1.333   1_545  A
C111       N1413   1.329       .  A
C111       C1056   1.445       .  S
C112        C210   1.480       .  S
N113        N114   1.336       .  A
N113        N119   1.337       .  A
N113      Mn1425   2.389       .  S
N114        C122   1.365       .  A
N115        N116   1.311       .  A
N115       N2073   1.339       .  A
N115       Mn133   2.316       .  S
N116        C123   1.336       .  A
N117        N118   1.318       .  A
N117       N2071   1.338       .  A
N117       Mn121   2.315   1_655  S
N118       C2079   1.341       .  A
N119        N120   1.321       .  A
N119       Mn785   2.392   1_545  S
N120        C122   1.344       .  A
Mn121      N1417   2.388   1_455  S
Mn121     Cl1438   2.586   1_455  S
C122        C258   1.500       .  S
C123       N2074   1.340       .  A
C123        C718   1.443       .  S
N124        N125   1.317       .  A
N124        N130   1.302       .  A
N124       Mn132   2.089       .  S
N125        C135   1.338       .  A
N126        N127   1.318       .  A
N126        N128   1.318       .  A
N126       Mn133   2.141       .  S
N127        C136   1.340       .  A
N128        N129   1.335       .  A
N128       Mn132   2.394       .  S
N129        C136   1.351       .  A
N130        N131   1.333       .  A
N130       Mn133   2.331       .  S
N131        C135   1.349       .  A
Mn132      N1410   2.264       .  S
Mn132      Cl786   2.608       .  S
Mn133       N771   2.384       .  S
Mn133      Cl786   2.576       .  S
Cl134     Mn1414   2.682       .  S
Cl134     Mn1425   2.579       .  S
Cl134      Mn784   2.624   1_545  S
Cl134      Mn785   2.571   1_545  S
C135        C270   1.468       .  S
C136        C198   1.474       .  S
C137        C139   1.586       .  S
C137        C141   1.583       .  S
C137        C140   1.586       .  S
C137        C161   1.864       .  S
C138        C142   1.585       .  S
C138        C144   1.575       .  S
C138        C143   1.577       .  S
C138        C160   1.860       .  S
C139        C147   1.380       .  A
C139        C142   1.476       .  A
C140        C151   1.379       .  A
C140        C143   1.470       .  A
C141        C155   1.384       .  A
C141        C144   1.469       .  A
C142        C145   1.379       .  A
C143        C149   1.372       .  A
C144        C152   1.373       .  A
C145        N146   1.356       .  A
C145        H158   1.078       .  S
N146        C147   1.357       .  A
N146        C246   1.443       .  S
C147        H148   1.080       .  S
C149        N150   1.357       .  A
C149        H159   1.079       .  S
N150        C151   1.360       .  A
N150        C219   1.440       .  S
C151        H157   1.078       .  S
C152        N153   1.353       .  A
C152        H154   1.078       .  S
N153        C155   1.361       .  A
N153        C231   1.436       .  S
C155        H156   1.040       .  S
C160        C162   1.579       .  S
C160        C164   1.587       .  S
C160        C163   1.586       .  S
C161        C165   1.574       .  S
C161        C167   1.586       .  S
C161        C166   1.580       .  S
C162        C170   1.374       .  A
C162        C491   1.469       .  A
C163        C174   1.383       .  A
C163        C492   1.479       .  A
C164        C178   1.385       .  A
C164        C493   1.473       .  A
C165        C168   1.371       .  A
C165        C488   1.472       .  A
C166        C172   1.374       .  A
C166        C489   1.479   1_554  A
C167        C175   1.375       .  A
C167        C490   1.474       .  A
C168        N495   1.350       .  A
C168        H181   1.081       .  S
N169        C170   1.356       .  A
N169        C494   1.354       .  A
N169        C533   1.430       .  S
C170        H171   1.077       .  S
C172        N499   1.352       .  A
C172        H182   1.080       .  S
N173        C174   1.355       .  A
N173        C498   1.352       .  A
N173        C509   1.434       .  S
C174        H180   1.081       .  S
C175        N502   1.358       .  A
C175        H177   1.078       .  S
N176        C178   1.357       .  A
N176        C501   1.358       .  A
N176        C521   1.444       .  S
C178        H179   1.077       .  S
C183        C184   1.398       .  A
C183        C188   1.416       .  A
C183        N499   1.436       .  S
C184        C185   1.405       .  A
C184        H193   1.082       .  S
C185        C186   1.417       .  A
C185        S189   1.802       .  S
C186        C187   1.401       .  A
C187        C188   1.400       .  A
C187        H194   1.083       .  S
C188        S516   1.804       .  S
S189        H192   1.407       .  S
S190        C514   1.804       .  S
S190        H191   1.400       .  S
C195        C196   1.405       .  A
C195        C526   1.410       .  A
C195        N502   1.444       .  S
C196        C197   1.395       .  A
C196        H205   1.060       .  S
C197        C198   1.408       .  A
C197        S201   1.802       .  S
C198        C199   1.407       .  A
C199        C526   1.412       .  A
C199        H532   1.081   1_554  S
C200        C521   1.414       .  A
C200        C525   1.408       .  A
C200        S202   1.801       .  S
S201        H204   1.405       .  S
S202        H203   1.404       .  S
H206        C525   1.085       .  S
C207        C212   1.410       .  A
C207        C534   1.392       .  A
C207        N495   1.428       .  S
C208        C533   1.391       .  A
C208        C535   1.401       .  A
C208        H217   1.083       .  S
C209        C210   1.420       .  A
C209        C534   1.399       .  A
C209        S539   1.805       .  S
C210        C211   1.404       .  A
C211        C212   1.399       .  A
C211        H218   1.083       .  S
C212        S214   1.806       .  S
S213        C535   1.806   1_655  S
S213        H542   1.406       .  S
S214        H215   1.407       .  S
H216        S539   1.407   1_655  S
C219        C220   1.404       .  A
C219        C224   1.409       .  A
C220        C221   1.404       .  A
C220        H229   1.081       .  S
C221        C222   1.414       .  A
C221        S225   1.802       .  S
C222        C223   1.407       .  A
C223        C224   1.399       .  A
C223        H230   1.084       .  S
C224        S226   1.801       .  S
S225        H228   1.406       .  S
S226        H227   1.407       .  S
C231        C232   1.398       .  A
C231        C236   1.413       .  A
C232        C233   1.401       .  A
C232        H241   1.083       .  S
C233        C234   1.417       .  A
C233        S237   1.803       .  S
C234        C235   1.401       .  A
C235        C236   1.403       .  A
C235        H242   1.084       .  S
C236        S238   1.805       .  S
S237        H240   1.406       .  S
S238        H239   1.407       .  S
C243        C244   1.408       .  A
C243        C248   1.414       .  A
C244        C245   1.402       .  A
C244        H253   1.083       .  S
C245        C246   1.410       .  A
C245        S249   1.801       .  S
C246        C247   1.407       .  A
C247        C248   1.403       .  A
C247        H254   1.082       .  S
C248        S250   1.799       .  S
S249        H252   1.406       .  S
S250        H251   1.405       .  S
C255        C256   1.386       .  A
C255        C260   1.410       .  A
C256        C257   1.400       .  A
C256        H265   1.082       .  S
C257        C258   1.431       .  A
C257        S261   1.806   1_545  S
C258        C259   1.408       .  A
C259        C260   1.407       .  A
C259        H266   1.083       .  S
C260        S262   1.805       .  S
S261        H264   1.406       .  S
S262        H263   1.407       .  S
C267        C268   1.404       .  A
C267        C272   1.411       .  A
C268        C269   1.397       .  A
C268        H277   1.081       .  S
C269        C270   1.405       .  A
C269        S273   1.804       .  S
C270        C271   1.404       .  A
C271        C272   1.404       .  A
C271        H278   1.085       .  S
C272        S274   1.800       .  S
S273        H276   1.407       .  S
S274        H275   1.406       .  S
C279        C280   1.405       .  A
C279        C284   1.420       .  A
C280        C281   1.391       .  A
C280        H289   1.083       .  S
C281        C282   1.410       .  A
C281        S285   1.801       .  S
C282        C283   1.404       .  A
C283        C284   1.409       .  A
C283        H290   1.083       .  S
C284        S286   1.798       .  S
S285        H288   1.403       .  S
S286        H287   1.404       .  S
C291        C292   1.412       .  A
C291        C296   1.415       .  A
C292        C293   1.404       .  A
C292        H301   1.083       .  S
C293        C294   1.407       .  A
C293        S297   1.801       .  S
C294        C295   1.406       .  A
C295        C296   1.404       .  A
C295        H628   1.084       .  S
C296        S298   1.798       .  S
S297        H300   1.406       .  S
S298        H299   1.402       .  S
H302        C621   1.083       .  S
C303        C304   1.402       .  A
C303        C308   1.407       .  A
C303        N343   1.436       .  S
C304        C305   1.399       .  A
C304        H313   1.084       .  S
C305        C306   1.412       .  A
C305        S309   1.803       .  S
C306        C307   1.407       .  A
C307        C308   1.404       .  A
C307        H314   1.083       .  S
C308        S636   1.799       .  S
S309        H312   1.405       .  S
S310        C634   1.803       .  S
S310        H311   1.404       .  S
C315        C316   1.397       .  A
C315        C320   1.413       .  A
C316        C643   1.398       .  A
C316        H651   1.079       .  S
C317        C642   1.400       .  A
C317        C644   1.410       .  A
C317        S321   1.805       .  S
C318        C319   1.402       .  A
C318        C643   1.410       .  A
C318        N340   1.436       .  S
C319        C320   1.405       .  A
C319        H326   1.083       .  S
C320        S322   1.805       .  S
S321        H324   1.406       .  S
S322        H323   1.406       .  S
H325        C642   1.077       .  S
C327        C329   1.587       .  S
C327        C331   1.577       .  S
C327        C330   1.583       .  S
C327        C351   1.864       .  S
C328        C332   1.578       .  S
C328        C334   1.579       .  S
C328        C333   1.585       .  S
C328        C350   1.854       .  S
C329        C337   1.382       .  A
C330        C341   1.376       .  A
C331        C345   1.373       .  A
C332        C335   1.376       .  A
C333        C339   1.381       .  A
C334        C342   1.377       .  A
C335        N336   1.355       .  A
C335        H348   1.078       .  S
N336        C620   1.442       .  S
C337        H338   1.081       .  S
C339        H349   1.078       .  S
N340        C341   1.354       .  A
C341        H347   1.071       .  S
C342        H344   1.080       .  S
N343        C345   1.355       .  A
C345        H346   1.075       .  S
C350        C352   1.584       .  S
C350        C354   1.579       .  S
C350        C353   1.571       .  S
C351        C355   1.578       .  S
C351        C357   1.585       .  S
C351        C356   1.590       .  S
C352        C360   1.380       .  A
C352        C355   1.476       .  A
C353        C364   1.372       .  A
C353        C356   1.469       .  A
C354        C368   1.378       .  A
C354        C357   1.477       .  A
C355        C358   1.377       .  A
C356        C362   1.382       .  A
C357        C365   1.375       .  A
C358        N359   1.352       .  A
C358        H371   1.078       .  S
N359        C360   1.353       .  A
N359        C581   1.435       .  S
C360        H361   1.078       .  S
C362        N363   1.363       .  A
C362        H372   1.079       .  S
N363        C364   1.352       .  A
N363        C608   1.438       .  S
C364        H370   1.074       .  S
C365        N366   1.356       .  A
C365        H367   1.076       .  S
N366        C368   1.354       .  A
N366        C593   1.438       .  S
C368        H369   1.081       .  S
N373        N374   1.334       .  A
N373        N379   1.307       .  A
N373       Mn402   2.385       .  S
N374        C381   1.356       .  A
N375        N377   1.313       .  A
N375        N376   1.333       .  A
N375       Mn391   2.366       .  S
N376        C382   1.356       .  A
N377        N378   1.318       .  A
N377       Mn402   2.122       .  S
N378        C382   1.344       .  A
N379        N380   1.318       .  A
N379       Mn391   2.087       .  S
N380        C381   1.339       .  A
C381        C641   1.477       .  S
C382        C548   1.488       .  S
N383       N2345   1.326       .  A
N383        N384   1.306       .  A
N383       Mn413   2.273       .  S
N384       C1044   1.330       .  A
N385        N386   1.321       .  A
N385        N387   1.329       .  A
N385      Mn1043   2.379       .  S
N386        C393   1.351       .  A
N387        N388   1.325       .  A
N387      Mn1717   2.277   1_455  S
N388        C393   1.360       .  A
N389       N2339   1.326       .  A
N389        N390   1.312   1_565  A
N389       Mn391   2.296   1_565  S
N390       C1696   1.334   1_445  A
Mn391      N1037   2.405   1_545  S
Mn391     Cl1719   2.612   1_455  S
C392       N1036   1.329       .  A
C392       N1694   1.335   1_565  A
C392       C1101   1.450   1_565  S
C393        C569   1.493       .  S
N394        N395   1.327       .  A
N394        N400   1.337       .  A
N394      Mn1706   2.394       .  S
N395        C403   1.349       .  A
N396       N2354   1.340       .  A
N396       Mn414   2.328   1_554  S
N397        C404   1.338       .  A
N398       N2352   1.340       .  A
N398       Mn402   2.321   1_654  S
N399       C2360   1.336   1_455  A
N400        N401   1.333       .  A
N400      Mn1066   2.385   1_545  S
N401        C403   1.359       .  A
Mn402      N1698   2.406   1_455  S
Mn402     Cl1719   2.550   1_455  S
C403        C617   1.493       .  S
C404       N2355   1.335       .  A
C404        C763   1.444       .  S
N405        N406   1.320       .  A
N405        N411   1.305       .  A
N405       Mn413   2.095       .  S
N406        C416   1.343       .  A
N407        N408   1.323       .  A
N407        N409   1.324       .  A
N407       Mn414   2.170       .  S
N408        C417   1.346       .  A
N409        N410   1.325       .  A
N409       Mn413   2.357       .  S
N410        C417   1.345       .  A
N411        N412   1.331       .  A
N411       Mn414   2.373       .  S
N412        C416   1.349       .  A
Mn413      N1691   2.266       .  S
Mn413     Cl1067   2.687       .  S
Mn414      N1052   2.385       .  S
Mn414     Cl1067   2.559       .  S
Cl415     Mn1695   2.603       .  S
Cl415     Mn1706   2.554       .  S
Cl415     Mn1065   2.685   1_545  S
Cl415     Mn1066   2.558   1_545  S
C416        C632   1.478       .  S
C417        C560   1.479       .  S
N418        N419   1.333       .  A
N418        N424   1.309       .  A
N418       Mn447   2.336       .  S
N419        C426   1.354       .  A
N420        N422   1.325       .  A
N420        N421   1.325       .  A
N420       Mn436   2.364       .  S
N421        C427   1.345       .  A
N422        N423   1.322       .  A
N422       Mn447   2.164       .  S
N423        C427   1.345       .  A
N424        N425   1.314       .  A
N424       Mn436   2.117       .  S
N425        C426   1.343       .  A
C426        C605   1.491       .  S
C427        C512   1.482       .  S
N428       N2390   1.326       .  A
N428       Mn458   2.327       .  S
N429       C1089   1.331       .  A
N430        N431   1.324       .  A
N430        N432   1.325       .  A
N430      Mn1088   2.255       .  S
N431        C438   1.361       .  A
N432        N433   1.314       .  A
N432      Mn1762   2.256   1_455  S
N433        C438   1.347       .  A
N434       N2384   1.326       .  A
N434       Mn436   2.304   1_565  S
N435       C1741   1.328       .  A
Mn436      N1082   2.253   1_545  S
Mn436     Cl1764   2.671   1_455  S
C437       N1081   1.329       .  A
C437       N1739   1.331   1_565  A
C437        C730   1.444   1_565  S
C438        C536   1.487       .  S
N439        N440   1.336       .  A
N439        N445   1.337       .  A
N439      Mn1751   2.395       .  S
N440        C448   1.365       .  A
N441       N2399   1.338       .  A
N441        N442   1.310       .  A
N441       Mn459   2.310       .  S
N442        C449   1.333       .  A
N443       N2397   1.338       .  A
N443        N444   1.318       .  A
N443       Mn447   2.306   1_655  S
N444       C2405   1.341       .  A
N445        N446   1.321       .  A
N445      Mn1111   2.398   1_545  S
N446        C448   1.342       .  A
Mn447      N1743   2.390   1_455  S
Mn447     Cl1764   2.604   1_455  S
C448        C584   1.500       .  S
C449       N2400   1.342       .  A
C449       C1044   1.446       .  S
N450        N451   1.318       .  A
N450        N456   1.303       .  A
N450       Mn458   2.104       .  S
N451        C461   1.341       .  A
N452        N453   1.318       .  A
N452        N454   1.317       .  A
N452       Mn459   2.131       .  S
N453        C462   1.339       .  A
N454        N455   1.336       .  A
N454       Mn458   2.406       .  S
N455        C462   1.351       .  A
N456        N457   1.331       .  A
N456       Mn459   2.319       .  S
N457        C461   1.348       .  A
Mn458      N1736   2.272       .  S
Mn458     Cl1112   2.587       .  S
Mn459      N1097   2.386       .  S
Mn459     Cl1112   2.595       .  S
Cl460     Mn1740   2.671   1_565  S
Cl460     Mn1751   2.604   1_565  S
Cl460     Mn1110   2.597       .  S
Cl460     Mn1111   2.588       .  S
C461        C596   1.469       .  S
C462        C524   1.476       .  S
C463        C465   1.581       .  S
C463        C467   1.585       .  S
C463        C466   1.588       .  S
C463        C487   1.861       .  S
C464        C468   1.589       .  S
C464        C470   1.575       .  S
C464        C469   1.575       .  S
C464        C486   1.858       .  S
C465        C473   1.379       .  A
C465        C468   1.477       .  A
C466        C477   1.380       .  A
C466        C469   1.470       .  A
C467        C481   1.382       .  A
C467        C470   1.470       .  A
C468        C471   1.381       .  A
C469        C475   1.373       .  A
C470        C478   1.373       .  A
C471        N472   1.358       .  A
C471        H484   1.078       .  S
N472        C473   1.355       .  A
N472        C572   1.444       .  S
C473        H474   1.078       .  S
C475        N476   1.356       .  A
C475        H485   1.078       .  S
N476        C477   1.361       .  A
N476        C545   1.440       .  S
C477        H483   1.077       .  S
C478        N479   1.353       .  A
C478        H480   1.080       .  S
N479        C481   1.358       .  A
N479        C557   1.437       .  S
C481        H482   1.077       .  S
C486        C488   1.577   1_556  S
C486        C490   1.582   1_556  S
C486        C489   1.587       .  S
C487        C491   1.574       .  S
C487        C493   1.583       .  S
C487        C492   1.579       .  S
C488        C496   1.375   1_554  A
C489        C500   1.384       .  A
C490        C504   1.383   1_554  A
C491        C494   1.372       .  A
C492        C498   1.373       .  A
C493        C501   1.375       .  A
C494        H507   1.080       .  S
N495        C496   1.355   1_554  A
C496        H497   1.075       .  S
C498        H508   1.079       .  S
N499        C500   1.357   1_554  A
C500        H506   1.080       .  S
C501        H503   1.078       .  S
N502        C504   1.355   1_554  A
C504        H505   1.082       .  S
C509        C510   1.396       .  A
C509        C514   1.415       .  A
C510        C511   1.400       .  A
C510        H519   1.083       .  S
C511        C512   1.418       .  A
C511        S515   1.797       .  S
C512        C513   1.402       .  A
C513        C514   1.400       .  A
C513        H520   1.084       .  S
S515        H518   1.406       .  S
S516        H517   1.398       .  S
C521        C522   1.404       .  A
C522        C523   1.394       .  A
C522        H531   1.083       .  S
C523        C524   1.409       .  A
C523        S527   1.801       .  S
C524        C525   1.405       .  A
C526        S528   1.800   1_554  S
S527        H530   1.405       .  S
S528        H529   1.407       .  S
C533        C538   1.409       .  A
C534        H543   1.082       .  S
C535        C536   1.425       .  A
C536        C537   1.404       .  A
C537        C538   1.400       .  A
C537        H544   1.082       .  S
C538        S540   1.806       .  S
S540        H541   1.407       .  S
C545        C546   1.404       .  A
C545        C550   1.409       .  A
C546        C547   1.404       .  A
C546        H555   1.082       .  S
C547        C548   1.414       .  A
C547        S551   1.802       .  S
C548        C549   1.408       .  A
C549        C550   1.401       .  A
C549        H556   1.084       .  S
C550        S552   1.802       .  S
S551        H554   1.406       .  S
S552        H553   1.406       .  S
C557        C558   1.399       .  A
C557        C562   1.412       .  A
C558        C559   1.406       .  A
C558        H567   1.083       .  S
C559        C560   1.416       .  A
C559        S563   1.806       .  S
C560        C561   1.400       .  A
C561        C562   1.403       .  A
C561        H568   1.083       .  S
C562        S564   1.805       .  S
S563        H566   1.407       .  S
S564        H565   1.407       .  S
C569        C570   1.411       .  A
C569        C574   1.414       .  A
C570        C571   1.405       .  A
C570        H579   1.084       .  S
C571        C572   1.411       .  A
C571        S575   1.803       .  S
C572        C573   1.406       .  A
C573        C574   1.402       .  A
C573        H580   1.082       .  S
C574        S576   1.800       .  S
S575        H578   1.406       .  S
S576        H577   1.407       .  S
C581        C582   1.388       .  A
C581        C586   1.410       .  A
C582        C583   1.401       .  A
C582        H591   1.082       .  S
C583        C584   1.433       .  A
C583        S587   1.808   1_545  S
C584        C585   1.406       .  A
C585        C586   1.407       .  A
C585        H592   1.082       .  S
C586        S588   1.805       .  S
S587        H590   1.407       .  S
S588        H589   1.407       .  S
C593        C594   1.404       .  A
C593        C598   1.411       .  A
C594        C595   1.397       .  A
C594        H603   1.078       .  S
C595        C596   1.404       .  A
C595        S599   1.801       .  S
C596        C597   1.403       .  A
C597        C598   1.404       .  A
C597        H604   1.083       .  S
C598        S600   1.800       .  S
S599        H602   1.407       .  S
S600        H601   1.406       .  S
C605        C606   1.405       .  A
C605        C610   1.420       .  A
C606        C607   1.389       .  A
C606        H615   1.084       .  S
C607        C608   1.409       .  A
C607        S611   1.801       .  S
C608        C609   1.405       .  A
C609        C610   1.409       .  A
C609        H616   1.083       .  S
C610        S612   1.799       .  S
S611        H614   1.405       .  S
S612        H613   1.401       .  S
C617        C618   1.413       .  A
C617        C622   1.413       .  A
C618        C619   1.405       .  A
C618        H627   1.083       .  S
C619        C620   1.408       .  A
C619        S623   1.801       .  S
C620        C621   1.405       .  A
C621        C622   1.402       .  A
C622        S624   1.799       .  S
S623        H626   1.406       .  S
S624        H625   1.402       .  S
C629        C630   1.402       .  A
C629        C634   1.411       .  A
C630        C631   1.396       .  A
C630        H639   1.084       .  S
C631        C632   1.411       .  A
C631        S635   1.802       .  S
C632        C633   1.407       .  A
C633        C634   1.405       .  A
C633        H640   1.084       .  S
S635        H638   1.405       .  S
S636        H637   1.406       .  S
C641        C642   1.398       .  A
C641        C646   1.416       .  A
C643        S647   1.805       .  S
C644        C645   1.402       .  A
C645        C646   1.407       .  A
C645        H652   1.083       .  S
C646        S648   1.804       .  S
S647        H650   1.407       .  S
S648        H649   1.405       .  S
C653        C655   1.593   1_554  S
C653        C657   1.583   1_554  S
C653        C656   1.587   1_554  S
C653        C677   1.868       .  S
C654        C658   1.585       .  S
C654        C660   1.579       .  S
C654        C659   1.586       .  S
C654        C676   1.861       .  S
C655        C663   1.384       .  A
C655        C984   1.471       .  A
C656        C667   1.379       .  A
C656        C985   1.477       .  A
C657        C671   1.376   1_556  A
C657        C986   1.467       .  A
C658        C981   1.470       .  A
C658        C661   1.380       .  A
C659        C982   1.477       .  A
C659        C665   1.381       .  A
C660        C983   1.468       .  A
C660        C668   1.376       .  A
C661        N662   1.358       .  A
C661        H674   1.079       .  S
N662        C989   1.358       .  A
N662        C946   1.445       .  S
C663        N988   1.358       .  A
C663        H664   1.079   1_556  S
C665        N992   1.356       .  A
C665        H675   1.078       .  S
N666        C991   1.354       .  A
N666        C667   1.354       .  A
N666       C1296   1.439       .  S
C667        H673   1.073   1_556  S
C668        N995   1.356       .  A
C668        H670   1.079       .  S
N669        C994   1.356       .  A
N669        C671   1.358   1_556  A
N669       C1281   1.433       .  S
C671        H672   1.077       .  S
C676        C678   1.584       .  S
C676        C680   1.584       .  S
C676        C679   1.576       .  S
C677        C681   1.577       .  S
C677        C683   1.587       .  S
C677        C682   1.590       .  S
C678        C686   1.380       .  A
C678        C681   1.477       .  A
C679        C690   1.374       .  A
C679        C682   1.468       .  A
C680        C694   1.382       .  A
C680        C683   1.478       .  A
C681        C684   1.376       .  A
C682        C688   1.383       .  A
C683        C691   1.375       .  A
C684        N685   1.350       .  A
C684        H697   1.076       .  S
N685        C686   1.353       .  A
N685        C907   1.434       .  S
C686        H687   1.077       .  S
C688        N689   1.362       .  A
C688        H698   1.078       .  S
N689        C690   1.352       .  A
N689        C934   1.441       .  S
C690        H696   1.076       .  S
C691        N692   1.358       .  A
C691        H693   1.080       .  S
N692        C694   1.356       .  A
N692        C919   1.442       .  S
C694        H695   1.079       .  S
N699        N700   1.333       .  A
N699        N705   1.308       .  A
N699       Mn728   2.382       .  S
N700        C707   1.356       .  A
N701        N703   1.312       .  A
N701        N702   1.331       .  A
N701       Mn717   2.345       .  S
N702        C708   1.357       .  A
N703        N704   1.318       .  A
N703       Mn728   2.126       .  S
N704        C708   1.344       .  A
N705        N706   1.319       .  A
N705       Mn717   2.092       .  S
N706        C707   1.340       .  A
C707        C967   1.479       .  S
C708        C874   1.486       .  S
N709       N1367   1.325       .  A
N709        N710   1.301       .  A
N709       Mn739   2.284       .  S
N711        N712   1.319       .  A
N711        N713   1.328       .  A
N712        C719   1.349       .  A
N713        N714   1.324       .  A
N713      Mn2043   2.271   1_455  S
N714        C719   1.360       .  A
N715       N1361   1.328       .  A
N715        N716   1.314       .  A
N715       Mn717   2.291       .  S
N716       C2022   1.334   1_455  A
Mn717     Cl2045   2.611   1_455  S
C718       N2020   1.332       .  A
C719        C895   1.487       .  S
N720        N721   1.326       .  A
N720        N726   1.338       .  A
N720      Mn2032   2.407       .  S
N721        C729   1.350       .  A
N722       N1376   1.339       .  A
N722       N1049   1.315       .  A
N722       Mn740   2.324   1_545  S
N723        C730   1.339       .  A
N723       N1048   1.316       .  A
N724       N1374   1.339       .  A
N724       N1051   1.310   1_655  A
N724       Mn728   2.320   1_655  S
N725       C1382   1.336   1_455  A
N725       N1050   1.311   1_455  A
N726        N727   1.335       .  A
N727        C729   1.361       .  A
Mn728      N2024   2.399   1_455  S
Mn728     Cl2045   2.547   1_455  S
C729        C943   1.497       .  S
C730       N1377   1.334       .  A
N731        N732   1.323       .  A
N731        N737   1.305       .  A
N731       Mn739   2.109       .  S
N732        C742   1.345       .  A
N733        N734   1.323       .  A
N733        N735   1.324       .  A
N733       Mn740   2.152       .  S
N734        C743   1.344       .  A
N735        N736   1.330       .  A
N735       Mn739   2.402       .  S
N736        C743   1.348       .  A
N737        N738   1.331       .  A
N737       Mn740   2.371       .  S
N738        C742   1.346       .  A
Mn739      N2017   2.287       .  S
Cl741     Mn2021   2.594       .  S
Cl741     Mn2032   2.572       .  S
C742        C958   1.481       .  S
C743        C886   1.484       .  S
N744        N745   1.334       .  A
N744        N750   1.310       .  A
N744       Mn773   2.332       .  S
N745        C752   1.356       .  A
N746        N748   1.325       .  A
N746        N747   1.325       .  A
N746       Mn762   2.354       .  S
N747        C753   1.345       .  A
N748        N749   1.320       .  A
N748       Mn773   2.162       .  S
N749        C753   1.345       .  A
N750        N751   1.315       .  A
N750       Mn762   2.127       .  S
N751        C752   1.344       .  A
C752        C931   1.496       .  S
C753        C838   1.477       .  S
N754       N1412   1.325       .  A
N754       N1081   1.297   1_556  A
N754       Mn784   2.308   1_556  S
N755       N1080   1.297       .  A
N756        N757   1.324       .  A
N756        N758   1.325       .  A
N757        C764   1.360       .  A
N758        N759   1.315       .  A
N758      Mn2088   2.274   1_455  S
N759        C764   1.348       .  A
N760       N1406   1.326       .  A
N760       N1087   1.296   1_556  A
N760       Mn762   2.309   1_556  S
N761       C2067   1.329       .  A
N761       N1086   1.296       .  A
Mn762     Cl2090   2.670   1_455  S
C763       N2065   1.328       .  A
C764        C862   1.489       .  S
N765        N766   1.336       .  A
N765        N771   1.337       .  A
N765      Mn2077   2.388       .  S
N766        C774   1.365       .  A
N767       N1421   1.338       .  A
N767        N768   1.310   1_545  A
N767       Mn785   2.319   1_545  S
N768        C775   1.334   1_565  A
N769       N1419   1.337       .  A
N769        N770   1.319       .  A
N769       Mn773   2.303   1_655  S
N770       C1427   1.342       .  A
N771        N772   1.319       .  A
N772        C774   1.343       .  A
Mn773      N2069   2.388   1_455  S
Mn773     Cl2090   2.601   1_455  S
C774        C910   1.497       .  S
C775       N1422   1.341       .  A
N776        N777   1.319       .  A
N776        N782   1.301       .  A
N776       Mn784   2.094       .  S
N777        C787   1.341       .  A
N778        N779   1.317       .  A
N778        N780   1.319       .  A
N778       Mn785   2.133       .  S
N779        C788   1.338       .  A
N780        N781   1.334       .  A
N780       Mn784   2.391       .  S
N781        C788   1.348       .  A
N782        N783   1.333       .  A
N782       Mn785   2.346       .  S
N783        C787   1.348       .  A
Mn784      N2062   2.263       .  S
Cl786     Mn2066   2.692       .  S
Cl786     Mn2077   2.581       .  S
C787        C922   1.474       .  S
C788        C850   1.469       .  S
C789        C791   1.581       .  S
C789        C793   1.586       .  S
C789        C792   1.583       .  S
C789        C813   1.859       .  S
C790        C794   1.586       .  S
C790        C796   1.583       .  S
C790        C795   1.581       .  S
C790        C812   1.861       .  S
C791        C799   1.377       .  A
C791        C794   1.474       .  A
C792        C803   1.378       .  A
C792        C795   1.468       .  A
C793        C807   1.381       .  A
C793        C796   1.471       .  A
C794        C797   1.379       .  A
C795        C801   1.375       .  A
C796        C804   1.379       .  A
C797        N798   1.359       .  A
C797        H810   1.076       .  S
N798        C799   1.357       .  A
N798        C898   1.444       .  S
C799        H800   1.079       .  S
C801        N802   1.359       .  A
C801        H811   1.080       .  S
N802        C803   1.361       .  A
N802        C871   1.442       .  S
C803        H809   1.080       .  S
C804        N805   1.355       .  A
C804        H806   1.079       .  S
N805        C807   1.358       .  A
N805        C883   1.442       .  S
C807        H808   1.073       .  S
C812        C814   1.580       .  S
C812        C816   1.584       .  S
C812        C815   1.584       .  S
C813        C817   1.580       .  S
C813        C819   1.580       .  S
C813        C818   1.577       .  S
C814        C822   1.374       .  A
C814       C1143   1.471       .  A
C815        C826   1.381       .  A
C815       C1144   1.480       .  A
C816        C830   1.382       .  A
C816       C1145   1.472       .  A
C817       C1140   1.471       .  A
C817        C820   1.377       .  A
C818       C1141   1.475       .  A
C818        C824   1.372       .  A
C819       C1142   1.474       .  A
C819        C827   1.372       .  A
C820       N1147   1.355       .  A
C820        H833   1.078       .  S
N821       C1146   1.353       .  A
N821        C822   1.356       .  A
N821       C1185   1.429       .  S
C822        H823   1.077       .  S
C824       N1151   1.353       .  A
C824        H834   1.079       .  S
N825       C1150   1.352       .  A
N825        C826   1.353       .  A
N825       C1161   1.433       .  S
C826        H832   1.078       .  S
C827       N1154   1.355       .  A
C827        H829   1.077       .  S
N828       C1153   1.361       .  A
N828        C830   1.357       .  A
N828       C1173   1.447       .  S
C830        H831   1.080       .  S
C835        C836   1.397       .  A
C835        C840   1.409       .  A
C835       N1151   1.433       .  S
C836        C837   1.401       .  A
C836        H845   1.084       .  S
C837        C838   1.419       .  A
C837        S841   1.801       .  S
C838        C839   1.402       .  A
C839        C840   1.401       .  A
C839        H846   1.084       .  S
C840       S1168   1.804       .  S
S841        H844   1.404       .  S
S842       C1166   1.805       .  S
S842        H843   1.407       .  S
C847        C848   1.404       .  A
C847       C1178   1.410       .  A
C847       N1154   1.439       .  S
C848        C849   1.393       .  A
C848        H857   1.079       .  S
C849        C850   1.409       .  A
C849        S853   1.801       .  S
C850        C851   1.404       .  A
C851       C1178   1.405       .  A
C851       H1184   1.084   1_554  S
C852       C1173   1.415       .  A
C852       C1177   1.410       .  A
C852        S854   1.800       .  S
S853        H856   1.405       .  S
S854        H855   1.406       .  S
H858       C1177   1.084       .  S
C859       C1186   1.391       .  A
C859        C864   1.408       .  A
C859       N1147   1.431       .  S
C860       C1185   1.395       .  A
C860       C1187   1.403       .  A
C860        H869   1.082       .  S
C861       C1186   1.402       .  A
C861        C862   1.425       .  A
C861       S1191   1.806   1_455  S
C862        C863   1.405       .  A
C863        C864   1.401       .  A
C863        H870   1.082       .  S
C864        S866   1.806       .  S
S865       C1187   1.806   1_655  S
S865       H1194   1.406       .  S
S866        H867   1.407       .  S
H868       S1191   1.406       .  S
C871        C872   1.404       .  A
C871        C876   1.411       .  A
C872        C873   1.402       .  A
C872        H881   1.081       .  S
C873        C874   1.411       .  A
C873        S877   1.799       .  S
C874        C875   1.408       .  A
C875        C876   1.401       .  A
C875        H882   1.084       .  S
C876        S878   1.801       .  S
S877        H880   1.406       .  S
S878        H879   1.406       .  S
C883        C884   1.400       .  A
C883        C888   1.413       .  A
C884        C885   1.405       .  A
C884        H893   1.083       .  S
C885        C886   1.418       .  A
C885        S889   1.801       .  S
C886        C887   1.402       .  A
C887        C888   1.406       .  A
C887        H894   1.083       .  S
C888        S890   1.804       .  S
S889        H892   1.406       .  S
S890        H891   1.407       .  S
C895        C896   1.409       .  A
C895        C900   1.411       .  A
C896        C897   1.404       .  A
C896        H905   1.084       .  S
C897        C898   1.411       .  A
C897        S901   1.802       .  S
C898        C899   1.406       .  A
C899        C900   1.401       .  A
C899        H906   1.082       .  S
C900        S902   1.799       .  S
S901        H904   1.407       .  S
S902        H903   1.407       .  S
C907        C908   1.388       .  A
C907        C912   1.415       .  A
C908        C909   1.399       .  A
C908        H917   1.082       .  S
C909        C910   1.431       .  A
C909        S913   1.809       .  S
C910        C911   1.406       .  A
C911        C912   1.405       .  A
C911        H918   1.084       .  S
C912        S914   1.803       .  S
S913        H916   1.407       .  S
S914        H915   1.402       .  S
C919        C920   1.403       .  A
C919        C924   1.412       .  A
C920        C921   1.397       .  A
C920        H929   1.080       .  S
C921        C922   1.406       .  A
C921        S925   1.802       .  S
C922        C923   1.404       .  A
C923        C924   1.406       .  A
C923        H930   1.084       .  S
C924        S926   1.799       .  S
S925        H928   1.407       .  S
S926        H927   1.406       .  S
C931        C932   1.407       .  A
C931        C936   1.419       .  A
C932        C933   1.397       .  A
C932        H941   1.083       .  S
C933        C934   1.408       .  A
C933        S937   1.806       .  S
C934        C935   1.404       .  A
C935        C936   1.410       .  A
C935        H942   1.084       .  S
C936        S938   1.798       .  S
S937        H940   1.407       .  S
S938        H939   1.403       .  S
C943        C944   1.413       .  A
C943        C948   1.413       .  A
C944        C945   1.406       .  A
C944        H953   1.083       .  S
C945        C946   1.410       .  A
C945        S949   1.802       .  S
C946        C947   1.406       .  A
C947        C948   1.403       .  A
C947       H1280   1.082       .  S
C948        S950   1.796       .  S
S949        H952   1.406       .  S
S950        H951   1.401       .  S
H954       C1273   1.084       .  S
C955        C956   1.403       .  A
C955        C960   1.411       .  A
C955        N995   1.437       .  S
C956        C957   1.399       .  A
C956        H965   1.084       .  S
C957        C958   1.412       .  A
C957        S961   1.802       .  S
C958        C959   1.407       .  A
C959        C960   1.405       .  A
C959        H966   1.083       .  S
C960       S1288   1.804       .  S
S961        H964   1.405       .  S
S962       C1286   1.804       .  S
S962        H963   1.404       .  S
C967        C968   1.400       .  A
C967        C972   1.415       .  A
C968       C1295   1.402       .  A
C968       H1303   1.077       .  S
C969       C1294   1.403       .  A
C969       C1296   1.411       .  A
C969        S973   1.806       .  S
C970       C1295   1.411       .  A
C970        C971   1.402       .  A
C970        N992   1.441       .  S
C971        C972   1.407       .  A
C971        H978   1.082       .  S
C972        S974   1.804       .  S
S973        H976   1.407       .  S
S974        H975   1.406       .  S
H977       C1294   1.079       .  S
C979        C981   1.584       .  S
C979        C983   1.585       .  S
C979        C982   1.586       .  S
C979       C1003   1.862       .  S
C980        C984   1.575       .  S
C980        C986   1.576       .  S
C980        C985   1.583       .  S
C980       C1002   1.852       .  S
C981        C989   1.383       .  A
C982        C993   1.380       .  A
C983        C997   1.378       .  A
C984        C987   1.377       .  A
C985        C991   1.379       .  A
C986        C994   1.375       .  A
C987        N988   1.354       .  A
C987       H1000   1.077       .  S
N988       C1272   1.443       .  S
C989        H990   1.077       .  S
C991       H1001   1.078       .  S
N992        C993   1.354       .  A
C993        H999   1.077       .  S
C994        H996   1.081       .  S
N995        C997   1.359       .  A
C997        H998   1.078       .  S
C1002      C1004   1.585       .  S
C1002      C1006   1.583       .  S
C1002      C1005   1.575       .  S
C1003      C1007   1.580       .  S
C1003      C1009   1.585       .  S
C1003      C1008   1.590       .  S
C1004      C1012   1.380       .  A
C1004      C1007   1.473       .  A
C1005      C1016   1.376       .  A
C1005      C1008   1.469       .  A
C1006      C1020   1.383       .  A
C1006      C1009   1.473       .  A
C1007      C1010   1.379       .  A
C1008      C1014   1.383       .  A
C1009      C1017   1.375       .  A
C1010      N1011   1.354       .  A
C1010      H1023   1.080       .  S
N1011      C1012   1.355       .  A
N1011      C1233   1.438       .  S
C1012      H1013   1.077       .  S
C1014      N1015   1.362       .  A
C1014      H1024   1.079       .  S
N1015      C1016   1.353       .  A
N1015      C1260   1.440       .  S
C1016      H1022   1.079       .  S
C1017      N1018   1.359       .  A
C1017      H1019   1.079       .  S
N1018      C1020   1.357       .  A
N1018      C1245   1.443       .  S
C1020      H1021   1.080       .  S
N1025      N1026   1.333       .  A
N1025      N1031   1.307       .  A
N1025     Mn1054   2.375       .  S
N1026      C1033   1.354       .  A
N1027      N1029   1.313       .  A
N1027      N1028   1.333       .  A
N1027     Mn1043   2.367       .  S
N1028      C1034   1.357       .  A
N1029      N1030   1.317       .  A
N1029     Mn1054   2.122       .  S
N1030      C1034   1.343       .  A
N1031      N1032   1.319       .  A
N1031     Mn1043   2.092       .  S
N1032      C1033   1.340       .  A
C1033      C1293   1.477       .  S
C1034      C1200   1.489       .  S
N1035      N1693   1.327       .  A
N1035      N1036   1.308       .  A
N1035     Mn1065   2.270       .  S
N1037      N1038   1.323       .  A
N1037      N1039   1.330       .  A
N1038      C1045   1.353       .  A
N1039      N1040   1.328       .  A
N1039     Mn2369   2.295   1_455  S
N1040      C1045   1.362       .  A
N1041      N1687   1.326       .  A
N1041      N1042   1.310       .  A
N1041     Mn1043   2.300       .  S
N1042      C2348   1.335   1_455  A
Mn1043    Cl2371   2.600   1_455  S
C1044      N2346   1.335       .  A
C1045      C1221   1.505       .  S
N1046      N1047   1.326       .  A
N1046      N1052   1.338       .  A
N1046     Mn2358   2.403       .  S
N1047      C1055   1.351       .  A
N1048      N1702   1.339       .  A
N1048     Mn1066   2.326   1_544  S
N1049      C1056   1.338       .  A
N1050      N1700   1.339       .  A
N1050     Mn1054   2.317   1_654  S
N1051      C1708   1.336   1_455  A
N1052      N1053   1.334       .  A
N1053      C1055   1.359       .  A
Mn1054     N2350   2.406   1_455  S
Mn1054    Cl2371   2.554   1_455  S
C1055      C1269   1.495       .  S
C1056      N1703   1.336       .  A
N1057      N1058   1.319       .  A
N1057      N1063   1.305       .  A
N1057     Mn1065   2.092       .  S
N1058      C1068   1.342       .  A
N1059      N1060   1.321       .  A
N1059      N1061   1.325       .  A
N1059     Mn1066   2.163       .  S
N1060      C1069   1.345       .  A
N1061      N1062   1.326       .  A
N1061     Mn1065   2.357       .  S
N1062      C1069   1.348       .  A
N1063      N1064   1.330       .  A
N1063     Mn1066   2.367       .  S
N1064      C1068   1.346       .  A
Mn1065     N2343   2.282       .  S
Cl1067    Mn2347   2.602       .  S
Cl1067    Mn2358   2.557       .  S
C1068      C1284   1.473       .  S
C1069      C1212   1.478       .  S
N1070      N1071   1.333       .  A
N1070      N1076   1.309       .  A
N1070     Mn1099   2.340       .  S
N1071      C1078   1.354       .  A
N1072      N1074   1.325       .  A
N1072      N1073   1.324       .  A
N1072     Mn1088   2.361       .  S
N1073      C1079   1.347       .  A
N1074      N1075   1.323       .  A
N1074     Mn1099   2.170       .  S
N1075      C1079   1.348       .  A
N1076      N1077   1.315       .  A
N1076     Mn1088   2.119       .  S
N1077      C1078   1.343       .  A
C1078      C1257   1.493       .  S
C1079      C1164   1.487       .  S
N1080      N1738   1.327       .  A
N1080     Mn1110   2.325       .  S
N1082      N1083   1.321       .  A
N1082      N1084   1.324       .  A
N1083      C1090   1.360       .  A
N1084      N1085   1.315       .  A
N1084     Mn2414   2.250   1_455  S
N1085      C1090   1.347       .  A
N1086      N1732   1.325       .  A
N1086     Mn1088   2.299       .  S
N1087      C2393   1.330       .  A
Mn1088    Cl2416   2.681   1_455  S
C1089      N2391   1.329       .  A
C1090      C1188   1.482       .  S
N1091      N1092   1.337       .  A
N1091      N1097   1.338       .  A
N1091     Mn2403   2.411       .  S
N1092      C1100   1.367       .  A
N1093      N1747   1.338       .  A
N1093      N1094   1.311   1_545  A
N1093     Mn1111   2.305   1_545  S
N1094      C1101   1.334   1_565  A
N1095      N1745   1.338       .  A
N1095      N1096   1.317       .  A
N1095     Mn1099   2.314   1_655  S
N1096      C1753   1.341       .  A
N1097      N1098   1.321       .  A
N1098      C1100   1.342       .  A
Mn1099     N2395   2.382   1_455  S
Mn1099    Cl2416   2.598   1_455  S
C1100      C1236   1.503       .  S
C1101      N1748   1.342       .  A
N1102      N1103   1.319       .  A
N1102      N1108   1.303       .  A
N1102     Mn1110   2.112       .  S
N1103      C1113   1.341       .  A
N1104      N1105   1.315       .  A
N1104      N1106   1.317       .  A
N1104     Mn1111   2.123       .  S
N1105      C1114   1.336       .  A
N1106      N1107   1.339       .  A
N1106     Mn1110   2.415       .  S
N1107      C1114   1.354       .  A
N1108      N1109   1.333       .  A
N1108     Mn1111   2.318       .  S
N1109      C1113   1.352       .  A
Mn1110     N2388   2.261       .  S
Cl1112    Mn2392   2.691       .  S
Cl1112    Mn2403   2.591       .  S
C1113      C1248   1.475       .  S
C1114      C1176   1.477       .  S
C1115      C1117   1.588       .  S
C1115      C1119   1.583       .  S
C1115      C1118   1.590       .  S
C1115      C1139   1.865       .  S
C1116      C1120   1.588       .  S
C1116      C1122   1.577       .  S
C1116      C1121   1.573       .  S
C1116      C1138   1.856       .  S
C1117      C1125   1.383       .  A
C1117      C1120   1.477       .  A
C1118      C1129   1.380       .  A
C1118      C1121   1.471       .  A
C1119      C1133   1.380       .  A
C1119      C1122   1.468       .  A
C1120      C1123   1.383       .  A
C1121      C1127   1.372       .  A
C1122      C1130   1.374       .  A
C1123      N1124   1.357       .  A
C1123      H1136   1.077       .  S
N1124      C1125   1.357       .  A
N1124      C1224   1.447       .  S
C1125      H1126   1.078       .  S
C1127      N1128   1.356       .  A
C1127      H1137   1.080       .  S
N1128      C1129   1.361       .  A
N1128      C1197   1.442       .  S
C1129      H1135   1.079       .  S
C1130      N1131   1.355       .  A
C1130      H1132   1.079       .  S
N1131      C1133   1.358       .  A
N1131      C1209   1.436       .  S
C1133      H1134   1.074       .  S
C1138      C1140   1.574   1_556  S
C1138      C1142   1.583   1_556  S
C1138      C1141   1.585   1_556  S
C1139      C1143   1.575       .  S
C1139      C1145   1.588       .  S
C1139      C1144   1.581       .  S
C1140      C1148   1.372       .  A
C1141      C1152   1.382   1_554  A
C1142      C1156   1.382   1_554  A
C1143      C1146   1.372       .  A
C1144      C1150   1.374       .  A
C1145      C1153   1.378       .  A
C1146      H1159   1.080       .  S
N1147      C1148   1.352       .  A
C1148      H1149   1.080   1_554  S
C1150      H1160   1.078       .  S
N1151      C1152   1.357   1_554  A
C1152      H1158   1.081       .  S
C1153      H1155   1.078       .  S
N1154      C1156   1.356   1_554  A
C1156      H1157   1.078       .  S
C1161      C1162   1.391       .  A
C1161      C1166   1.410       .  A
C1162      C1163   1.401       .  A
C1162      H1171   1.082       .  S
C1163      C1164   1.419       .  A
C1163      S1167   1.800       .  S
C1164      C1165   1.406       .  A
C1165      C1166   1.406       .  A
C1165      H1172   1.083       .  S
S1167      H1170   1.406       .  S
S1168      H1169   1.407       .  S
C1173      C1174   1.404       .  A
C1174      C1175   1.398       .  A
C1174      H1183   1.078       .  S
C1175      C1176   1.407       .  A
C1175      S1179   1.807       .  S
C1176      C1177   1.407       .  A
C1178      S1180   1.799   1_554  S
S1179      H1182   1.406       .  S
S1180      H1181   1.406   1_556  S
C1185      C1190   1.412       .  A
C1186      H1195   1.082       .  S
C1187      C1188   1.422       .  A
C1188      C1189   1.401       .  A
C1189      C1190   1.392       .  A
C1189      H1196   1.083       .  S
C1190      S1192   1.803       .  S
S1192      H1193   1.400       .  S
C1197      C1198   1.405       .  A
C1197      C1202   1.409       .  A
C1198      C1199   1.405       .  A
C1198      H1207   1.080       .  S
C1199      C1200   1.413       .  A
C1199      S1203   1.802       .  S
C1200      C1201   1.409       .  A
C1201      C1202   1.401       .  A
C1201      H1208   1.084       .  S
C1202      S1204   1.802       .  S
S1203      H1206   1.406       .  S
S1204      H1205   1.406       .  S
C1209      C1210   1.399       .  A
C1209      C1214   1.412       .  A
C1210      C1211   1.403       .  A
C1210      H1219   1.083       .  S
C1211      C1212   1.417       .  A
C1211      S1215   1.802       .  S
C1212      C1213   1.401       .  A
C1213      C1214   1.402       .  A
C1213      H1220   1.083       .  S
C1214      S1216   1.806       .  S
S1215      H1218   1.406       .  S
S1216      H1217   1.407       .  S
C1221      C1222   1.413       .  A
C1221      C1226   1.418       .  A
C1222      C1223   1.407       .  A
C1222      H1231   1.083       .  S
C1223      C1224   1.408       .  A
C1223      S1227   1.801       .  S
C1224      C1225   1.405       .  A
C1225      C1226   1.407       .  A
C1225      H1232   1.082       .  S
C1226      S1228   1.797       .  S
S1227      H1230   1.407       .  S
S1228      H1229   1.406       .  S
C1233      C1234   1.391       .  A
C1233      C1238   1.409       .  A
C1234      C1235   1.405       .  A
C1234      H1243   1.083       .  S
C1235      C1236   1.434       .  A
C1235      S1239   1.809       .  S
C1236      C1237   1.406       .  A
C1237      C1238   1.406       .  A
C1237      H1244   1.082       .  S
C1238      S1240   1.804       .  S
S1239      H1242   1.407       .  S
S1240      H1241   1.407       .  S
C1245      C1246   1.404       .  A
C1245      C1250   1.415       .  A
C1246      C1247   1.396       .  A
C1246      H1255   1.080       .  S
C1247      C1248   1.404       .  A
C1247      S1251   1.805       .  S
C1248      C1249   1.407       .  A
C1249      C1250   1.409       .  A
C1249      H1256   1.084       .  S
C1250      S1252   1.804       .  S
S1251      H1254   1.407       .  S
S1252      H1253   1.404       .  S
C1257      C1258   1.406       .  A
C1257      C1262   1.420       .  A
C1258      C1259   1.393       .  A
C1258      H1267   1.084       .  S
C1259      C1260   1.407       .  A
C1259      S1263   1.796       .  S
C1260      C1261   1.403       .  A
C1261      C1262   1.410       .  A
C1261      H1268   1.083       .  S
C1262      S1264   1.797       .  S
S1263      H1266   1.407       .  S
S1264      H1265   1.406       .  S
C1269      C1270   1.412       .  A
C1269      C1274   1.415       .  A
C1270      C1271   1.403       .  A
C1270      H1279   1.084       .  S
C1271      C1272   1.406       .  A
C1271      S1275   1.801       .  S
C1272      C1273   1.407       .  A
C1273      C1274   1.404       .  A
C1274      S1276   1.799       .  S
S1275      H1278   1.405       .  S
S1276      H1277   1.402       .  S
C1281      C1282   1.402       .  A
C1281      C1286   1.410       .  A
C1282      C1283   1.395       .  A
C1282      H1291   1.084       .  S
C1283      C1284   1.410       .  A
C1283      S1287   1.804       .  S
C1284      C1285   1.407       .  A
C1285      C1286   1.404       .  A
C1285      H1292   1.083       .  S
S1287      H1290   1.406       .  S
S1288      H1289   1.404       .  S
C1293      C1294   1.400       .  A
C1293      C1298   1.415       .  A
C1295      S1299   1.806       .  S
C1296      C1297   1.400       .  A
C1297      C1298   1.405       .  A
C1297      H1304   1.083       .  S
C1298      S1300   1.803       .  S
S1299      H1302   1.406       .  S
S1300      H1301   1.406       .  S
C1305      C1307   1.590   1_554  S
C1305      C1309   1.581   1_554  S
C1305      C1308   1.591   1_554  S
C1305      C1329   1.866       .  S
C1306      C1310   1.582       .  S
C1306      C1312   1.577       .  S
C1306      C1311   1.584       .  S
C1306      C1328   1.860       .  S
C1307      C1315   1.385       .  A
C1307      C1636   1.470       .  A
C1308      C1319   1.382   1_556  A
C1308      C1637   1.477       .  A
C1309      C1323   1.376   1_556  A
C1309      C1638   1.469       .  A
C1310      C1633   1.473       .  A
C1310      C1313   1.378       .  A
C1311      C1634   1.476       .  A
C1311      C1317   1.379       .  A
C1312      C1635   1.469       .  A
C1312      C1320   1.374       .  A
C1313      N1314   1.355       .  A
C1313      H1326   1.079       .  S
N1314      C1641   1.359       .  A
N1314      C1598   1.444       .  S
C1315      N1640   1.359       .  A
C1315      H1316   1.073   1_556  S
C1317      N1644   1.356       .  A
C1317      H1327   1.081       .  S
N1318      C1643   1.354       .  A
N1318      C1319   1.356   1_556  A
N1318      C1948   1.442       .  S
C1319      H1325   1.067       .  S
C1320      N1647   1.356       .  A
C1320      H1322   1.080       .  S
N1321      C1646   1.355       .  A
N1321      C1323   1.356   1_556  A
N1321      C1933   1.432       .  S
C1323      H1324   1.082       .  S
C1328      C1330   1.583       .  S
C1328      C1332   1.583       .  S
C1328      C1331   1.577       .  S
C1329      C1333   1.575       .  S
C1329      C1335   1.586       .  S
C1329      C1334   1.584       .  S
C1330      C1338   1.380       .  A
C1330      C1333   1.478       .  A
C1331      C1342   1.376       .  A
C1331      C1334   1.471       .  A
C1332      C1346   1.381       .  A
C1332      C1335   1.478       .  A
C1333      C1336   1.374       .  A
C1334      C1340   1.378       .  A
C1335      C1343   1.375       .  A
C1336      N1337   1.349       .  A
C1336      H1349   1.076       .  S
N1337      C1338   1.353       .  A
N1337      C1559   1.433       .  S
C1338      H1339   1.077       .  S
C1340      N1341   1.358       .  A
C1340      H1350   1.079       .  S
N1341      C1342   1.353       .  A
N1341      C1586   1.437       .  S
C1342      H1348   1.074       .  S
C1343      N1344   1.357       .  A
C1343      H1345   1.081       .  S
N1344      C1346   1.355       .  A
N1344      C1571   1.439       .  S
C1346      H1347   1.080       .  S
N1351      N1352   1.334       .  A
N1351      N1357   1.302       .  A
N1351     Mn1380   2.367       .  S
N1352      C1359   1.352       .  A
N1353      N1355   1.317       .  A
N1353      N1354   1.335       .  A
N1353     Mn1369   2.394       .  S
N1354      C1360   1.355       .  A
N1355      N1356   1.319       .  A
N1355     Mn1380   2.137       .  S
N1356      C1360   1.341       .  A
N1357      N1358   1.319       .  A
N1357     Mn1369   2.075       .  S
N1358      C1359   1.338       .  A
C1359      C1619   1.474       .  S
C1360      C1526   1.492       .  S
N1361      N1362   1.311   1_455  A
N1361     Mn1391   2.267   1_455  S
N1362      C2022   1.332       .  A
N1363      N1364   1.317       .  A
N1363      N1365   1.326       .  A
N1363     Mn2021   2.301       .  S
N1364      C1371   1.350       .  A
N1365      N1366   1.325       .  A
N1366      C1371   1.360       .  A
N1367      N1368   1.302   1_565  A
N1367     Mn1369   2.298   1_565  S
Mn1369     N2015   2.299   1_545  S
C1370      N2014   1.330       .  A
C1370      C2079   1.444   1_565  S
C1371      C1547   1.489       .  S
N1372      N1373   1.328       .  A
N1372      N1378   1.338       .  A
N1373      C1381   1.353       .  A
N1374      N1701   1.315       .  A
N1374     Mn1392   2.330       .  S
N1375      C1382   1.339       .  A
N1375      N1700   1.316       .  A
N1376      N1703   1.311       .  A
N1376     Mn1380   2.319       .  S
N1377      N1702   1.308       .  A
N1378      N1379   1.333       .  A
N1378     Mn2044   2.388   1_545  S
N1379      C1381   1.359       .  A
C1381      C1595   1.499       .  S
C1382      C2393   1.444   1_655  S
N1383      N1384   1.321       .  A
N1383      N1389   1.303       .  A
N1383     Mn1391   2.093       .  S
N1384      C1394   1.345       .  A
N1385      N1386   1.322       .  A
N1385      N1387   1.322       .  A
N1385     Mn1392   2.161       .  S
N1386      C1395   1.346       .  A
N1387      N1388   1.324       .  A
N1387     Mn1391   2.345       .  S
N1388      C1395   1.345       .  A
N1389      N1390   1.330       .  A
N1389     Mn1392   2.381       .  S
N1390      C1394   1.348       .  A
Mn1391    Cl2045   2.665       .  S
Mn1392     N2030   2.383       .  S
Mn1392    Cl2045   2.558       .  S
Cl1393    Mn2043   2.678   1_545  S
Cl1393    Mn2044   2.562   1_545  S
C1394      C1610   1.480       .  S
C1395      C1538   1.472       .  S
N1396      N1397   1.331       .  A
N1396      N1402   1.308       .  A
N1396     Mn1425   2.341       .  S
N1397      C1404   1.348       .  A
N1398      N1400   1.325       .  A
N1398      N1399   1.325       .  A
N1398     Mn1414   2.360       .  S
N1399      C1405   1.344       .  A
N1400      N1401   1.323       .  A
N1400     Mn1425   2.171       .  S
N1401      C1405   1.347       .  A
N1402      N1403   1.318       .  A
N1402     Mn1414   2.122       .  S
N1403      C1404   1.346       .  A
C1404      C1583   1.490       .  S
C1405      C1490   1.481       .  S
N1406      N1733   1.295   1_456  A
N1406     Mn1436   2.328   1_456  S
N1407      C2067   1.331   1_655  A
N1407      N1732   1.295   1_655  A
N1408      N1409   1.323       .  A
N1408      N1410   1.325       .  A
N1408     Mn2066   2.263       .  S
N1409      C1416   1.361       .  A
N1410      N1411   1.316       .  A
N1411      C1416   1.347       .  A
N1412      N1739   1.297   1_566  A
N1412     Mn1414   2.298   1_566  S
N1413      N1738   1.297   1_545  A
Mn1414     N2060   2.258   1_545  S
C1415      N2059   1.331   1_445  A
C1415      C2360   1.443   1_455  S
C1416      C1514   1.486       .  S
N1417      N1418   1.336       .  A
N1417      N1423   1.337       .  A
N1418      C1426   1.365       .  A
N1419      N1420   1.311       .  A
N1419     Mn1437   2.307       .  S
N1420      C1427   1.333       .  A
N1421      N1422   1.318       .  A
N1421     Mn1425   2.307       .  S
N1423      N1424   1.320       .  A
N1423     Mn2089   2.390   1_545  S
N1424      C1426   1.341       .  A
C1426      C1562   1.497       .  S
C1427      C2022   1.447       .  S
N1428      N1429   1.319       .  A
N1428      N1434   1.303       .  A
N1428     Mn1436   2.114       .  S
N1429      C1439   1.342       .  A
N1430      N1431   1.317       .  A
N1430      N1432   1.318       .  A
N1430     Mn1437   2.125       .  S
N1431      C1440   1.337       .  A
N1432      N1433   1.337       .  A
N1432     Mn1436   2.415       .  S
N1433      C1440   1.352       .  A
N1434      N1435   1.332       .  A
N1434     Mn1437   2.312       .  S
N1435      C1439   1.349       .  A
Mn1436    Cl2090   2.593       .  S
Mn1437     N2075   2.389       .  S
Mn1437    Cl2090   2.598       .  S
Cl1438    Mn2088   2.602   1_545  S
Cl1438    Mn2089   2.581   1_545  S
C1439      C1574   1.473       .  S
C1440      C1502   1.475       .  S
C1441      C1443   1.584       .  S
C1441      C1445   1.588       .  S
C1441      C1444   1.585       .  S
C1441      C1465   1.864       .  S
C1442      C1446   1.581       .  S
C1442      C1448   1.574       .  S
C1442      C1447   1.580       .  S
C1442      C1464   1.859       .  S
C1443      C1451   1.381       .  A
C1443      C1446   1.476       .  A
C1444      C1455   1.380       .  A
C1444      C1447   1.470       .  A
C1445      C1459   1.383       .  A
C1445      C1448   1.473       .  A
C1446      C1449   1.374       .  A
C1447      C1453   1.375       .  A
C1448      C1456   1.372       .  A
C1449      N1450   1.354       .  A
C1449      H1462   1.072       .  S
N1450      C1451   1.357       .  A
N1450      C1550   1.440       .  S
C1451      H1452   1.077       .  S
C1453      N1454   1.359       .  A
C1453      H1463   1.080       .  S
N1454      C1455   1.361       .  A
N1454      C1523   1.443       .  S
C1455      H1461   1.079       .  S
C1456      N1457   1.351       .  A
C1456      H1458   1.078       .  S
N1457      C1459   1.359       .  A
N1457      C1535   1.437       .  S
C1459      H1460   1.070       .  S
C1464      C1466   1.575       .  S
C1464      C1468   1.587       .  S
C1464      C1467   1.582       .  S
C1465      C1469   1.577       .  S
C1465      C1471   1.584       .  S
C1465      C1470   1.582       .  S
C1466      C1474   1.372       .  A
C1466      C1795   1.470       .  A
C1467      C1478   1.380       .  A
C1467      C1796   1.480       .  A
C1468      C1482   1.384       .  A
C1468      C1797   1.474       .  A
C1469      C1792   1.471       .  A
C1469      C1472   1.375       .  A
C1470      C1793   1.477   1_554  A
C1470      C1476   1.375       .  A
C1471      C1794   1.473       .  A
C1471      C1479   1.373       .  A
C1472      N1799   1.355       .  A
C1472      H1485   1.081       .  S
N1473      C1798   1.355       .  A
N1473      C1474   1.354       .  A
N1473      C1837   1.430       .  S
C1474      H1475   1.079       .  S
C1476      N1803   1.354       .  A
C1476      H1486   1.081       .  S
N1477      C1802   1.352       .  A
N1477      C1478   1.354       .  A
N1477      C1813   1.432       .  S
C1478      H1484   1.078       .  S
C1479      N1806   1.357       .  A
C1479      H1481   1.074       .  S
N1480      C1805   1.355       .  A
N1480      C1482   1.357       .  A
N1480      C1825   1.440       .  S
C1482      H1483   1.079       .  S
C1487      C1488   1.394       .  A
C1487      C1492   1.409       .  A
C1487      N1803   1.434       .  S
C1488      C1489   1.399       .  A
C1488      H1497   1.084       .  S
C1489      C1490   1.420       .  A
C1489      S1493   1.800       .  S
C1490      C1491   1.403       .  A
C1491      C1492   1.404       .  A
C1491      H1498   1.083       .  S
C1492      S1820   1.805       .  S
S1493      H1496   1.403       .  S
S1494      C1818   1.805       .  S
S1494      H1495   1.407       .  S
C1499      C1500   1.404       .  A
C1499      C1830   1.414       .  A
C1499      N1806   1.444       .  S
C1500      C1501   1.395       .  A
C1500      H1509   1.077       .  S
C1501      C1502   1.409       .  A
C1501      S1505   1.803       .  S
C1502      C1503   1.407       .  A
C1503      C1830   1.410       .  A
C1503      H1836   1.083   1_554  S
C1504      C1825   1.407       .  A
C1504      C1829   1.409       .  A
C1504      S1506   1.802       .  S
S1505      H1508   1.403       .  S
S1506      H1507   1.407       .  S
H1510      C1829   1.082       .  S
C1511      C1838   1.395       .  A
C1511      C1516   1.412       .  A
C1511      N1799   1.432       .  S
C1512      C1837   1.393       .  A
C1512      C1839   1.402       .  A
C1512      H1521   1.082       .  S
C1513      C1838   1.404       .  A
C1513      C1514   1.424       .  A
C1513      S1843   1.805       .  S
C1514      C1515   1.401       .  A
C1515      C1516   1.394       .  A
C1515      H1522   1.083       .  S
C1516      S1518   1.801       .  S
S1517      C1839   1.805       .  S
S1517      H1846   1.406       .  S
S1518      H1519   1.401       .  S
H1520      S1843   1.407       .  S
C1523      C1524   1.403       .  A
C1523      C1528   1.410       .  A
C1524      C1525   1.404       .  A
C1524      H1533   1.082       .  S
C1525      C1526   1.414       .  A
C1525      S1529   1.798       .  S
C1526      C1527   1.409       .  A
C1527      C1528   1.403       .  A
C1527      H1534   1.084       .  S
C1528      S1530   1.802       .  S
S1529      H1532   1.407       .  S
S1530      H1531   1.406       .  S
C1535      C1536   1.401       .  A
C1535      C1540   1.417       .  A
C1536      C1537   1.405       .  A
C1536      H1545   1.082       .  S
C1537      C1538   1.413       .  A
C1537      S1541   1.807       .  S
C1538      C1539   1.397       .  A
C1539      C1540   1.398       .  A
C1539      H1546   1.085       .  S
C1540      S1542   1.800       .  S
S1541      H1544   1.407       .  S
S1542      H1543   1.404       .  S
C1547      C1548   1.410       .  A
C1547      C1552   1.415       .  A
C1548      C1549   1.400       .  A
C1548      H1557   1.083       .  S
C1549      C1550   1.407       .  A
C1549      S1553   1.802       .  S
C1550      C1551   1.406       .  A
C1551      C1552   1.402       .  A
C1551      H1558   1.082       .  S
C1552      S1554   1.801       .  S
S1553      H1556   1.406       .  S
S1554      H1555   1.406       .  S
C1559      C1560   1.388       .  A
C1559      C1564   1.414       .  A
C1560      C1561   1.400       .  A
C1560      H1569   1.082       .  S
C1561      C1562   1.432       .  A
C1561      S1565   1.808       .  S
C1562      C1563   1.405       .  A
C1563      C1564   1.403       .  A
C1563      H1570   1.084       .  S
C1564      S1566   1.802       .  S
S1565      H1568   1.407   1_545  S
S1566      H1567   1.402       .  S
C1571      C1572   1.404       .  A
C1571      C1576   1.411       .  A
C1572      C1573   1.398       .  A
C1572      H1581   1.082       .  S
C1573      C1574   1.405       .  A
C1573      S1577   1.803       .  S
C1574      C1575   1.404       .  A
C1575      C1576   1.406       .  A
C1575      H1582   1.084       .  S
C1576      S1578   1.802       .  S
S1577      H1580   1.407       .  S
S1578      H1579   1.405       .  S
C1583      C1584   1.403       .  A
C1583      C1588   1.422       .  A
C1584      C1585   1.392       .  A
C1584      H1593   1.084       .  S
C1585      C1586   1.411       .  A
C1585      S1589   1.802       .  S
C1586      C1587   1.401       .  A
C1587      C1588   1.406       .  A
C1587      H1594   1.084       .  S
C1588      S1590   1.799       .  S
S1589      H1592   1.403       .  S
S1590      H1591   1.402       .  S
C1595      C1596   1.413       .  A
C1595      C1600   1.416       .  A
C1596      C1597   1.406       .  A
C1596      H1605   1.083       .  S
C1597      C1598   1.407       .  A
C1597      S1601   1.800       .  S
C1598      C1599   1.406       .  A
C1599      C1600   1.405       .  A
C1599      H1932   1.083       .  S
C1600      S1602   1.799       .  S
S1601      H1604   1.406       .  S
S1602      H1603   1.404       .  S
H1606      C1925   1.084       .  S
C1607      C1608   1.403       .  A
C1607      C1612   1.410       .  A
C1607      N1647   1.436       .  S
C1608      C1609   1.400       .  A
C1608      H1617   1.083       .  S
C1609      C1610   1.409       .  A
C1609      S1613   1.805       .  S
C1610      C1611   1.407       .  A
C1611      C1612   1.405       .  A
C1611      H1618   1.083       .  S
C1612      S1940   1.804       .  S
S1613      H1616   1.407       .  S
S1614      C1938   1.804       .  S
S1614      H1615   1.403   1_556  S
C1619      C1620   1.400       .  A
C1619      C1624   1.415       .  A
C1620      C1947   1.401       .  A
C1620      H1955   1.080       .  S
C1621      C1946   1.404       .  A
C1621      C1948   1.410       .  A
C1621      S1625   1.806       .  S
C1622      C1947   1.411       .  A
C1622      C1623   1.402       .  A
C1622      N1644   1.439       .  S
C1623      C1624   1.406       .  A
C1623      H1630   1.082       .  S
C1624      S1626   1.805       .  S
S1625      H1628   1.407       .  S
S1626      H1627   1.405       .  S
H1629      C1946   1.079       .  S
C1631      C1633   1.591       .  S
C1631      C1635   1.586       .  S
C1631      C1634   1.584       .  S
C1631      C1655   1.864       .  S
C1632      C1636   1.580       .  S
C1632      C1638   1.576       .  S
C1632      C1637   1.582       .  S
C1632      C1654   1.855       .  S
C1633      C1641   1.387       .  A
C1634      C1645   1.377       .  A
C1635      C1649   1.381       .  A
C1636      C1639   1.377       .  A
C1637      C1643   1.378       .  A
C1638      C1646   1.373       .  A
C1639      N1640   1.356       .  A
C1639      H1652   1.078       .  S
N1640      C1924   1.445       .  S
C1641      H1642   1.077       .  S
C1643      H1653   1.080       .  S
N1644      C1645   1.354       .  A
C1645      H1651   1.071       .  S
C1646      H1648   1.081       .  S
N1647      C1649   1.359       .  A
C1649      H1650   1.080       .  S
C1654      C1656   1.582       .  S
C1654      C1658   1.580       .  S
C1654      C1657   1.579       .  S
C1655      C1659   1.578       .  S
C1655      C1661   1.582       .  S
C1655      C1660   1.591       .  S
C1656      C1664   1.378       .  A
C1656      C1659   1.478       .  A
C1657      C1668   1.377       .  A
C1657      C1660   1.471       .  A
C1658      C1672   1.380       .  A
C1658      C1661   1.472       .  A
C1659      C1662   1.376       .  A
C1660      C1666   1.384       .  A
C1661      C1669   1.373       .  A
C1662      N1663   1.351       .  A
C1662      H1675   1.079       .  S
N1663      C1664   1.352       .  A
N1663      C1885   1.433       .  S
C1664      H1665   1.076       .  S
C1666      N1667   1.362       .  A
C1666      H1676   1.079       .  S
N1667      C1668   1.353       .  A
N1667      C1912   1.443       .  S
C1668      H1674   1.075       .  S
C1669      N1670   1.358       .  A
C1669      H1671   1.079       .  S
N1670      C1672   1.357       .  A
N1670      C1897   1.437       .  S
C1672      H1673   1.080       .  S
N1677      N1678   1.334       .  A
N1677      N1683   1.307       .  A
N1677     Mn1706   2.394       .  S
N1678      C1685   1.355       .  A
N1679      N1681   1.312       .  A
N1679      N1680   1.333       .  A
N1679     Mn1695   2.369       .  S
N1680      C1686   1.358       .  A
N1681      N1682   1.318       .  A
N1681     Mn1706   2.121       .  S
N1682      C1686   1.343       .  A
N1683      N1684   1.321       .  A
N1683     Mn1695   2.099       .  S
N1684      C1685   1.342       .  A
C1685      C1945   1.483       .  S
C1686      C1852   1.490       .  S
N1687      N1688   1.307   1_455  A
N1687     Mn1717   2.266   1_455  S
N1688      C2348   1.330       .  A
N1689      N1690   1.321       .  A
N1689      N1691   1.328       .  A
N1689     Mn2347   2.380       .  S
N1690      C1697   1.354       .  A
N1691      N1692   1.324       .  A
N1692      C1697   1.358       .  A
N1693      N1694   1.311   1_565  A
N1693     Mn1695   2.299   1_565  S
Mn1695     N2341   2.403   1_545  S
C1696      N2340   1.330       .  A
C1696      C2405   1.447   1_565  S
C1697      C1873   1.494       .  S
N1698      N1699   1.328       .  A
N1698      N1704   1.337       .  A
N1699      C1707   1.354       .  A
N1700     Mn1718   2.320   1_554  S
N1701      C1708   1.338       .  A
N1702     Mn1706   2.332   1_554  S
N1704      N1705   1.333       .  A
N1704     Mn2370   2.383   1_545  S
N1705      C1707   1.358       .  A
C1707      C1921   1.496       .  S
C1708      C2067   1.443   1_655  S
N1709      N1710   1.320       .  A
N1709      N1715   1.304       .  A
N1709     Mn1717   2.090       .  S
N1710      C1720   1.343       .  A
N1711      N1712   1.322       .  A
N1711      N1713   1.324       .  A
N1711     Mn1718   2.158       .  S
N1712      C1721   1.345       .  A
N1713      N1714   1.326       .  A
N1713     Mn1717   2.364       .  S
N1714      C1721   1.347       .  A
N1715      N1716   1.330       .  A
N1715     Mn1718   2.370       .  S
N1716      C1720   1.345       .  A
Mn1717    Cl2371   2.683       .  S
Mn1718     N2356   2.398       .  S
Mn1718    Cl2371   2.556       .  S
Cl1719    Mn2369   2.674   1_545  S
Cl1719    Mn2370   2.568   1_545  S
C1720      C1936   1.475       .  S
C1721      C1864   1.476       .  S
N1722      N1723   1.333       .  A
N1722      N1728   1.309       .  A
N1722     Mn1751   2.338       .  S
N1723      C1730   1.354       .  A
N1724      N1726   1.324       .  A
N1724      N1725   1.323       .  A
N1724     Mn1740   2.370       .  S
N1725      C1731   1.340       .  A
N1726      N1727   1.325       .  A
N1726     Mn1751   2.163       .  S
N1727      C1731   1.348       .  A
N1728      N1729   1.316       .  A
N1728     Mn1740   2.118       .  S
N1729      C1730   1.344       .  A
C1730      C1909   1.494       .  S
C1731      C1816   1.482       .  S
N1732     Mn1762   2.322   1_455  S
N1733      C2393   1.331   1_655  A
N1734      N1735   1.324       .  A
N1734      N1736   1.326       .  A
N1734     Mn2392   2.261       .  S
N1735      C1742   1.361       .  A
N1736      N1737   1.314       .  A
N1737      C1742   1.346       .  A
N1738     Mn1740   2.305   1_565  S
Mn1740     N2386   2.253   1_545  S
C1741      N2385   1.331   1_445  A
C1741      C2034   1.444   1_455  S
C1742      C1840   1.484       .  S
N1743      N1744   1.336       .  A
N1743      N1749   1.336       .  A
N1744      C1752   1.366       .  A
N1745      N1746   1.311       .  A
N1745     Mn1763   2.312       .  S
N1746      C1753   1.334       .  A
N1747      N1748   1.319       .  A
N1747     Mn1751   2.302       .  S
N1749      N1750   1.318       .  A
N1749     Mn2415   2.384   1_545  S
N1750      C1752   1.341       .  A
C1752      C1888   1.498       .  S
C1753      C2348   1.445       .  S
N1754      N1755   1.319       .  A
N1754      N1760   1.303       .  A
N1754     Mn1762   2.102       .  S
N1755      C1765   1.340       .  A
N1756      N1757   1.316       .  A
N1756      N1758   1.318       .  A
N1756     Mn1763   2.124       .  S
N1757      C1766   1.337       .  A
N1758      N1759   1.336       .  A
N1758     Mn1762   2.407       .  S
N1759      C1766   1.351       .  A
N1760      N1761   1.331       .  A
N1760     Mn1763   2.322       .  S
N1761      C1765   1.348       .  A
Mn1762    Cl2416   2.596       .  S
Mn1763     N2401   2.389       .  S
Mn1763    Cl2416   2.592       .  S
Cl1764    Mn2414   2.602   1_545  S
Cl1764    Mn2415   2.589   1_545  S
C1765      C1900   1.471       .  S
C1766      C1828   1.471       .  S
C1767      C1769   1.587       .  S
C1767      C1771   1.590       .  S
C1767      C1770   1.586       .  S
C1767      C1791   1.864       .  S
C1768      C1772   1.585       .  S
C1768      C1774   1.570       .  S
C1768      C1773   1.577       .  S
C1768      C1790   1.856       .  S
C1769      C1777   1.383       .  A
C1769      C1772   1.477       .  A
C1770      C1781   1.380       .  A
C1770      C1773   1.469       .  A
C1771      C1785   1.384       .  A
C1771      C1774   1.470       .  A
C1772      C1775   1.378       .  A
C1773      C1779   1.373       .  A
C1774      C1782   1.371       .  A
C1775      N1776   1.355       .  A
C1775      H1788   1.079       .  S
N1776      C1777   1.357       .  A
N1776      C1876   1.444       .  S
C1777      H1778   1.080       .  S
C1779      N1780   1.358       .  A
C1779      H1789   1.079       .  S
N1780      C1781   1.361       .  A
N1780      C1849   1.443       .  S
C1781      H1787   1.081       .  S
C1782      N1783   1.351       .  A
C1782      H1784   1.078       .  S
N1783      C1785   1.360       .  A
N1783      C1861   1.437       .  S
C1785      H1786   1.075       .  S
C1790      C1792   1.578   1_556  S
C1790      C1794   1.587   1_556  S
C1790      C1793   1.580       .  S
C1791      C1795   1.579       .  S
C1791      C1797   1.579       .  S
C1791      C1796   1.582       .  S
C1792      C1800   1.373   1_554  A
C1793      C1804   1.380       .  A
C1794      C1808   1.387   1_554  A
C1795      C1798   1.374       .  A
C1796      C1802   1.373       .  A
C1797      C1805   1.374       .  A
C1798      H1811   1.080       .  S
N1799      C1800   1.354   1_554  A
C1800      H1801   1.079       .  S
C1802      H1812   1.083       .  S
N1803      C1804   1.354   1_554  A
C1804      H1810   1.079       .  S
C1805      H1807   1.079       .  S
N1806      C1808   1.358   1_554  A
C1808      H1809   1.079       .  S
C1813      C1814   1.393       .  A
C1813      C1818   1.410       .  A
C1814      C1815   1.401       .  A
C1814      H1823   1.082       .  S
C1815      C1816   1.419       .  A
C1815      S1819   1.806       .  S
C1816      C1817   1.403       .  A
C1817      C1818   1.405       .  A
C1817      H1824   1.083       .  S
S1819      H1822   1.406       .  S
S1820      H1821   1.407       .  S
C1825      C1826   1.404       .  A
C1826      C1827   1.399       .  A
C1826      H1835   1.080       .  S
C1827      C1828   1.406       .  A
C1827      S1831   1.806       .  S
C1828      C1829   1.405       .  A
C1830      S1832   1.802   1_554  S
S1831      H1834   1.407       .  S
S1832      H1833   1.404   1_556  S
C1837      C1842   1.410       .  A
C1838      H1847   1.083       .  S
C1839      C1840   1.422       .  A
C1840      C1841   1.402       .  A
C1841      C1842   1.399       .  A
C1841      H1848   1.082       .  S
C1842      S1844   1.805       .  S
S1844      H1845   1.407       .  S
C1849      C1850   1.404       .  A
C1849      C1854   1.409       .  A
C1850      C1851   1.404       .  A
C1850      H1859   1.082       .  S
C1851      C1852   1.413       .  A
C1851      S1855   1.799       .  S
C1852      C1853   1.409       .  A
C1853      C1854   1.402       .  A
C1853      H1860   1.084       .  S
C1854      S1856   1.801       .  S
S1855      H1858   1.406       .  S
S1856      H1857   1.407       .  S
C1861      C1862   1.399       .  A
C1861      C1866   1.413       .  A
C1862      C1863   1.402       .  A
C1862      H1871   1.084       .  S
C1863      C1864   1.416       .  A
C1863      S1867   1.803       .  S
C1864      C1865   1.400       .  A
C1865      C1866   1.403       .  A
C1865      H1872   1.084       .  S
C1866      S1868   1.806       .  S
S1867      H1870   1.407       .  S
S1868      H1869   1.407       .  S
C1873      C1874   1.410       .  A
C1873      C1878   1.417       .  A
C1874      C1875   1.403       .  A
C1874      H1883   1.083       .  S
C1875      C1876   1.408       .  A
C1875      S1879   1.800       .  S
C1876      C1877   1.406       .  A
C1877      C1878   1.404       .  A
C1877      H1884   1.083       .  S
C1878      S1880   1.801       .  S
S1879      H1882   1.407       .  S
S1880      H1881   1.406       .  S
C1885      C1886   1.387       .  A
C1885      C1890   1.415       .  A
C1886      C1887   1.399       .  A
C1886      H1895   1.082       .  S
C1887      C1888   1.431       .  A
C1887      S1891   1.806       .  S
C1888      C1889   1.405       .  A
C1889      C1890   1.404       .  A
C1889      H1896   1.083       .  S
C1890      S1892   1.804       .  S
S1891      H1894   1.407   1_545  S
S1892      H1893   1.399       .  S
C1897      C1898   1.404       .  A
C1897      C1902   1.413       .  A
C1898      C1899   1.397       .  A
C1898      H1907   1.082       .  S
C1899      C1900   1.405       .  A
C1899      S1903   1.803       .  S
C1900      C1901   1.404       .  A
C1901      C1902   1.405       .  A
C1901      H1908   1.084       .  S
C1902      S1904   1.805       .  S
S1903      H1906   1.407       .  S
S1904      H1905   1.401       .  S
C1909      C1910   1.405       .  A
C1909      C1914   1.420       .  A
C1910      C1911   1.393       .  A
C1910      H1919   1.084       .  S
C1911      C1912   1.411       .  A
C1911      S1915   1.801       .  S
C1912      C1913   1.405       .  A
C1913      C1914   1.411       .  A
C1913      H1920   1.083       .  S
C1914      S1916   1.799       .  S
S1915      H1918   1.404       .  S
S1916      H1917   1.403       .  S
C1921      C1922   1.412       .  A
C1921      C1926   1.416       .  A
C1922      C1923   1.405       .  A
C1922      H1931   1.084       .  S
C1923      C1924   1.410       .  A
C1923      S1927   1.803       .  S
C1924      C1925   1.407       .  A
C1925      C1926   1.404       .  A
C1926      S1928   1.801       .  S
S1927      H1930   1.403       .  S
S1928      H1929   1.403       .  S
C1933      C1934   1.402       .  A
C1933      C1938   1.408       .  A
C1934      C1935   1.395       .  A
C1934      H1943   1.084       .  S
C1935      C1936   1.410       .  A
C1935      S1939   1.803       .  S
C1936      C1937   1.407       .  A
C1937      C1938   1.403       .  A
C1937      H1944   1.083       .  S
S1939      H1942   1.407       .  S
S1940      H1941   1.403       .  S
C1945      C1946   1.402       .  A
C1945      C1950   1.418       .  A
C1947      S1951   1.806       .  S
C1948      C1949   1.402       .  A
C1949      C1950   1.409       .  A
C1949      H1956   1.083       .  S
C1950      S1952   1.807       .  S
S1951      H1954   1.406       .  S
S1952      H1953   1.403       .  S
C1957      C1959   1.589   1_554  S
C1957      C1961   1.583   1_554  S
C1957      C1960   1.585   1_554  S
C1957      C1981   1.859       .  S
C1958      C1962   1.583       .  S
C1958      C1964   1.575       .  S
C1958      C1963   1.589       .  S
C1958      C1980   1.862       .  S
C1959      C1967   1.386       .  A
C1959      C2288   1.468       .  A
C1960      C1971   1.380   1_556  A
C1960      C2289   1.477       .  A
C1961      C1975   1.378   1_556  A
C1961      C2290   1.466       .  A
C1962      C2285   1.473       .  A
C1962      C1965   1.379       .  A
C1963      C2286   1.478       .  A
C1963      C1969   1.381       .  A
C1964      C2287   1.467       .  A
C1964      C1972   1.374       .  A
C1965      N1966   1.356       .  A
C1965      H1978   1.076       .  S
N1966      C2293   1.360       .  A
N1966      C2250   1.447       .  S
C1967      N2292   1.359       .  A
C1967      H1968   1.077   1_556  S
C1969      N2296   1.356       .  A
C1969      H1979   1.079       .  S
N1970      C2295   1.356       .  A
N1970      C1971   1.353   1_556  A
N1970      C2600   1.443       .  S
C1971      H1977   1.072       .  S
C1972      N2299   1.355       .  A
C1972      H1974   1.080       .  S
N1973      C2298   1.357       .  A
N1973      C1975   1.358   1_556  A
N1973      C2585   1.434       .  S
C1975      H1976   1.079       .  S
C1980      C1982   1.587       .  S
C1980      C1984   1.590       .  S
C1980      C1983   1.577       .  S
C1981      C1985   1.574       .  S
C1981      C1987   1.579       .  S
C1981      C1986   1.589       .  S
C1982      C1990   1.381       .  A
C1982      C1985   1.475       .  A
C1983      C1994   1.374       .  A
C1983      C1986   1.470       .  A
C1984      C1998   1.385       .  A
C1984      C1987   1.476       .  A
C1985      C1988   1.375       .  A
C1986      C1992   1.383       .  A
C1987      C1995   1.373       .  A
C1988      N1989   1.350       .  A
C1988      H2001   1.078       .  S
N1989      C1990   1.355       .  A
N1989      C2211   1.434       .  S
C1990      H1991   1.076       .  S
C1992      N1993   1.360       .  A
C1992      H2002   1.077       .  S
N1993      C1994   1.352       .  A
N1993      C2238   1.441       .  S
C1994      H2000   1.079       .  S
C1995      N1996   1.354       .  A
C1995      H1997   1.079       .  S
N1996      C1998   1.358       .  A
N1996      C2223   1.438       .  S
C1998      H1999   1.080       .  S
N2003      N2004   1.335       .  A
N2003      N2009   1.303       .  A
N2003     Mn2032   2.364       .  S
N2004      C2011   1.355       .  A
N2005      N2007   1.316       .  A
N2005      N2006   1.336       .  A
N2005     Mn2021   2.401       .  S
N2006      C2012   1.357       .  A
N2007      N2008   1.318       .  A
N2007     Mn2032   2.126       .  S
N2008      C2012   1.340       .  A
N2009      N2010   1.319       .  A
N2009     Mn2021   2.085       .  S
N2010      C2011   1.338       .  A
C2011      C2271   1.479       .  S
C2012      C2178   1.489       .  S
N2013      N2014   1.305   1_455  A
N2013     Mn2043   2.271   1_455  S
N2015      N2016   1.319       .  A
N2015      N2017   1.328       .  A
N2016      C2023   1.350       .  A
N2017      N2018   1.327       .  A
N2018      C2023   1.362       .  A
N2019      N2020   1.301       .  A
N2019     Mn2021   2.310       .  S
C2023      C2199   1.494       .  S
N2024      N2025   1.327       .  A
N2024      N2030   1.337       .  A
N2025      C2033   1.351       .  A
N2026      N2353   1.314       .  A
N2026     Mn2044   2.334   1_545  S
N2027      C2034   1.338       .  A
N2027      N2352   1.316       .  A
N2028      N2355   1.311       .  A
N2028     Mn2032   2.320       .  S
N2029      N2354   1.312       .  A
N2030      N2031   1.334       .  A
N2031      C2033   1.359       .  A
C2033      C2247   1.496       .  S
N2035      N2036   1.320       .  A
N2035      N2041   1.304       .  A
N2035     Mn2043   2.099       .  S
N2036      C2046   1.343       .  A
N2037      N2038   1.322       .  A
N2037      N2039   1.324       .  A
N2037     Mn2044   2.167       .  S
N2038      C2047   1.346       .  A
N2039      N2040   1.326       .  A
N2039     Mn2043   2.367       .  S
N2040      C2047   1.346       .  A
N2041      N2042   1.332       .  A
N2041     Mn2044   2.375       .  S
N2042      C2046   1.348       .  A
C2046      C2262   1.480       .  S
C2047      C2190   1.479       .  S
N2048      N2049   1.334       .  A
N2048      N2054   1.307       .  A
N2048     Mn2077   2.362       .  S
N2049      C2056   1.351       .  A
N2050      N2052   1.325       .  A
N2050      N2051   1.324       .  A
N2050     Mn2066   2.364       .  S
N2051      C2057   1.345       .  A
N2052      N2053   1.323       .  A
N2052     Mn2077   2.170       .  S
N2053      C2057   1.347       .  A
N2054      N2055   1.318       .  A
N2054     Mn2066   2.118       .  S
N2055      C2056   1.345       .  A
C2056      C2235   1.495       .  S
C2057      C2142   1.484       .  S
N2058      N2385   1.297   1_456  A
N2058     Mn2088   2.315   1_456  S
N2059      N2384   1.295   1_655  A
N2060      N2061   1.323       .  A
N2060      N2062   1.325       .  A
N2061      C2068   1.359       .  A
N2062      N2063   1.315       .  A
N2063      C2068   1.349       .  A
N2064      N2391   1.298   1_556  A
N2064     Mn2066   2.294   1_556  S
N2065      N2390   1.298       .  A
C2068      C2166   1.484       .  S
N2069      N2070   1.335       .  A
N2069      N2075   1.337       .  A
N2070      C2078   1.364       .  A
N2071      N2072   1.309   1_545  A
N2071     Mn2089   2.321   1_545  S
N2072      C2079   1.333   1_565  A
N2073      N2074   1.316       .  A
N2073     Mn2077   2.323       .  S
N2075      N2076   1.320       .  A
N2076      C2078   1.342       .  A
C2078      C2214   1.496       .  S
N2080      N2081   1.318       .  A
N2080      N2086   1.302       .  A
N2080     Mn2088   2.092       .  S
N2081      C2091   1.340       .  A
N2082      N2083   1.317       .  A
N2082      N2084   1.318       .  A
N2082     Mn2089   2.130       .  S
N2083      C2092   1.338       .  A
N2084      N2085   1.336       .  A
N2084     Mn2088   2.402       .  S
N2085      C2092   1.352       .  A
N2086      N2087   1.333       .  A
N2086     Mn2089   2.339       .  S
N2087      C2091   1.351       .  A
C2091      C2226   1.472       .  S
C2092      C2154   1.474       .  S
C2093      C2095   1.584       .  S
C2093      C2097   1.585       .  S
C2093      C2096   1.585       .  S
C2093      C2117   1.859       .  S
C2094      C2098   1.583       .  S
C2094      C2100   1.584       .  S
C2094      C2099   1.582       .  S
C2094      C2116   1.858       .  S
C2095      C2103   1.379       .  A
C2095      C2098   1.472       .  A
C2096      C2107   1.380       .  A
C2096      C2099   1.469       .  A
C2097      C2111   1.382       .  A
C2097      C2100   1.472       .  A
C2098      C2101   1.379       .  A
C2099      C2105   1.378       .  A
C2100      C2108   1.379       .  A
C2101      N2102   1.357       .  A
C2101      H2114   1.081       .  S
N2102      C2103   1.357       .  A
N2102      C2202   1.443       .  S
C2103      H2104   1.078       .  S
C2105      N2106   1.359       .  A
C2105      H2115   1.079       .  S
N2106      C2107   1.359       .  A
N2106      C2175   1.443       .  S
C2107      H2113   1.078       .  S
C2108      N2109   1.356       .  A
C2108      H2110   1.078       .  S
N2109      C2111   1.357       .  A
N2109      C2187   1.440       .  S
C2111      H2112   1.079       .  S
C2116      C2118   1.580       .  S
C2116      C2120   1.579       .  S
C2116      C2119   1.584       .  S
C2117      C2121   1.578       .  S
C2117      C2123   1.580       .  S
C2117      C2122   1.578       .  S
C2118      C2126   1.375       .  A
C2118      C2447   1.474       .  A
C2119      C2130   1.381       .  A
C2119      C2448   1.480       .  A
C2120      C2134   1.381       .  A
C2120      C2449   1.473       .  A
C2121      C2444   1.474       .  A
C2121      C2124   1.376       .  A
C2122      C2445   1.476       .  A
C2122      C2128   1.373       .  A
C2123      C2446   1.471       .  A
C2123      C2131   1.373       .  A
C2124      N2451   1.353       .  A
C2124      H2137   1.079       .  S
N2125      C2450   1.350       .  A
N2125      C2126   1.354       .  A
N2125      C2489   1.428       .  S
C2126      H2127   1.077       .  S
C2128      N2455   1.352       .  A
C2128      H2138   1.080       .  S
N2129      C2454   1.352       .  A
N2129      C2130   1.354       .  A
N2129      C2465   1.433       .  S
C2130      H2136   1.079       .  S
C2131      N2458   1.356       .  A
C2131      H2133   1.076       .  S
N2132      C2457   1.359       .  A
N2132      C2134   1.355       .  A
N2132      C2477   1.445       .  S
C2134      H2135   1.077       .  S
C2139      C2140   1.396       .  A
C2139      C2144   1.410       .  A
C2139      N2455   1.435       .  S
C2140      C2141   1.404       .  A
C2140      H2149   1.082       .  S
C2141      C2142   1.419       .  A
C2141      S2145   1.805       .  S
C2142      C2143   1.403       .  A
C2143      C2144   1.404       .  A
C2143      H2150   1.083       .  S
C2144      S2472   1.805       .  S
S2145      H2148   1.406       .  S
S2146      C2470   1.804       .  S
S2146      H2147   1.400       .  S
C2151      C2152   1.404       .  A
C2151      C2482   1.412       .  A
C2151      N2458   1.439       .  S
C2152      C2153   1.399       .  A
C2152      H2161   1.083       .  S
C2153      C2154   1.406       .  A
C2153      S2157   1.803       .  S
C2154      C2155   1.405       .  A
C2155      C2482   1.407       .  A
C2155      H2488   1.084       .  S
C2156      C2477   1.415       .  A
C2156      C2481   1.409       .  A
C2156      S2158   1.800       .  S
S2157      H2160   1.407       .  S
S2158      H2159   1.406       .  S
H2162      C2481   1.083       .  S
C2163      C2490   1.393       .  A
C2163      C2168   1.414       .  A
C2163      N2451   1.432       .  S
C2164      C2489   1.392       .  A
C2164      C2491   1.399       .  A
C2164      H2173   1.082       .  S
C2165      C2490   1.401       .  A
C2165      C2166   1.421       .  A
C2165      S2495   1.803       .  S
C2166      C2167   1.403       .  A
C2167      C2168   1.397       .  A
C2167      H2174   1.083       .  S
C2168      S2170   1.803       .  S
S2169      C2491   1.806       .  S
S2169      H2498   1.406       .  S
S2170      H2171   1.402       .  S
H2172      S2495   1.407       .  S
C2175      C2176   1.405       .  A
C2175      C2180   1.409       .  A
C2176      C2177   1.406       .  A
C2176      H2185   1.082       .  S
C2177      C2178   1.413       .  A
C2177      S2181   1.801       .  S
C2178      C2179   1.409       .  A
C2179      C2180   1.402       .  A
C2179      H2186   1.084       .  S
C2180      S2182   1.801       .  S
S2181      H2184   1.407       .  S
S2182      H2183   1.407       .  S
C2187      C2188   1.400       .  A
C2187      C2192   1.413       .  A
C2188      C2189   1.403       .  A
C2188      H2197   1.082       .  S
C2189      C2190   1.417       .  A
C2189      S2193   1.803       .  S
C2190      C2191   1.401       .  A
C2191      C2192   1.405       .  A
C2191      H2198   1.083       .  S
C2192      S2194   1.805       .  S
S2193      H2196   1.407       .  S
S2194      H2195   1.407       .  S
C2199      C2200   1.411       .  A
C2199      C2204   1.415       .  A
C2200      C2201   1.403       .  A
C2200      H2209   1.083       .  S
C2201      C2202   1.408       .  A
C2201      S2205   1.802       .  S
C2202      C2203   1.407       .  A
C2203      C2204   1.405       .  A
C2203      H2210   1.082       .  S
C2204      S2206   1.800       .  S
S2205      H2208   1.407       .  S
S2206      H2207   1.406       .  S
C2211      C2212   1.390       .  A
C2211      C2216   1.416       .  A
C2212      C2213   1.401       .  A
C2212      H2221   1.082       .  S
C2213      C2214   1.431       .  A
C2213      S2217   1.809       .  S
C2214      C2215   1.404       .  A
C2215      C2216   1.402       .  A
C2215      H2222   1.083       .  S
C2216      S2218   1.805       .  S
S2217      H2220   1.407       .  S
S2218      H2219   1.398       .  S
C2223      C2224   1.404       .  A
C2223      C2228   1.409       .  A
C2224      C2225   1.400       .  A
C2224      H2233   1.082       .  S
C2225      C2226   1.406       .  A
C2225      S2229   1.804       .  S
C2226      C2227   1.405       .  A
C2227      C2228   1.405       .  A
C2227      H2234   1.084       .  S
C2228      S2230   1.801       .  S
S2229      H2232   1.406       .  S
S2230      H2231   1.406       .  S
C2235      C2236   1.405       .  A
C2235      C2240   1.422       .  A
C2236      C2237   1.394       .  A
C2236      H2245   1.084       .  S
C2237      C2238   1.412       .  A
C2237      S2241   1.802       .  S
C2238      C2239   1.402       .  A
C2239      C2240   1.409       .  A
C2239      H2246   1.083       .  S
C2240      S2242   1.798       .  S
S2241      H2244   1.404       .  S
S2242      H2243   1.401       .  S
C2247      C2248   1.412       .  A
C2247      C2252   1.415       .  A
C2248      C2249   1.405       .  A
C2248      H2257   1.084       .  S
C2249      C2250   1.408       .  A
C2249      S2253   1.800       .  S
C2250      C2251   1.408       .  A
C2251      C2252   1.406       .  A
C2251      H2584   1.083       .  S
C2252      S2254   1.799       .  S
S2253      H2256   1.406       .  S
S2254      H2255   1.402       .  S
H2258      C2577   1.082       .  S
C2259      C2260   1.402       .  A
C2259      C2264   1.409       .  A
C2259      N2299   1.435       .  S
C2260      C2261   1.397       .  A
C2260      H2269   1.084       .  S
C2261      C2262   1.412       .  A
C2261      S2265   1.804       .  S
C2262      C2263   1.408       .  A
C2263      C2264   1.406       .  A
C2263      H2270   1.083       .  S
C2264      S2592   1.804       .  S
S2265      H2268   1.407       .  S
S2266      C2590   1.801       .  S
S2266      H2267   1.405   1_556  S
C2271      C2272   1.398       .  A
C2271      C2276   1.416       .  A
C2272      C2599   1.398       .  A
C2272      H2607   1.080       .  S
C2273      C2598   1.398       .  A
C2273      C2600   1.417       .  A
C2273      S2277   1.803       .  S
C2274      C2599   1.416       .  A
C2274      C2275   1.402       .  A
C2274      N2296   1.441       .  S
C2275      C2276   1.407       .  A
C2275      H2282   1.083       .  S
C2276      S2278   1.804       .  S
S2277      H2280   1.401       .  S
S2278      H2279   1.406       .  S
H2281      C2598   1.082       .  S
C2283      C2285   1.595       .  S
C2283      C2287   1.582       .  S
C2283      C2286   1.584       .  S
C2283      C2307   1.866       .  S
C2284      C2288   1.582       .  S
C2284      C2290   1.576       .  S
C2284      C2289   1.588       .  S
C2284      C2306   1.856       .  S
C2285      C2293   1.388       .  A
C2286      C2297   1.379       .  A
C2287      C2301   1.379       .  A
C2288      C2291   1.379       .  A
C2289      C2295   1.383       .  A
C2290      C2298   1.374       .  A
C2291      N2292   1.357       .  A
C2291      H2304   1.079       .  S
N2292      C2576   1.447       .  S
C2293      H2294   1.077       .  S
C2295      H2305   1.074       .  S
N2296      C2297   1.354       .  A
C2297      H2303   1.074       .  S
C2298      H2300   1.080       .  S
N2299      C2301   1.359       .  A
C2301      H2302   1.069       .  S
C2306      C2308   1.584       .  S
C2306      C2310   1.583       .  S
C2306      C2309   1.575       .  S
C2307      C2311   1.572       .  S
C2307      C2313   1.587       .  S
C2307      C2312   1.595       .  S
C2308      C2316   1.380       .  A
C2308      C2311   1.476       .  A
C2309      C2320   1.374       .  A
C2309      C2312   1.469       .  A
C2310      C2324   1.382       .  A
C2310      C2313   1.476       .  A
C2311      C2314   1.373       .  A
C2312      C2318   1.386       .  A
C2313      C2321   1.375       .  A
C2314      N2315   1.348       .  A
C2314      H2327   1.077       .  S
N2315      C2316   1.353       .  A
N2315      C2537   1.432       .  S
C2316      H2317   1.078       .  S
C2318      N2319   1.364       .  A
C2318      H2328   1.077       .  S
N2319      C2320   1.352       .  A
N2319      C2564   1.444       .  S
C2320      H2326   1.078       .  S
C2321      N2322   1.357       .  A
C2321      H2323   1.079       .  S
N2322      C2324   1.356       .  A
N2322      C2549   1.440       .  S
C2324      H2325   1.080       .  S
N2329      N2330   1.333       .  A
N2329      N2335   1.306       .  A
N2329     Mn2358   2.373       .  S
N2330      C2337   1.354       .  A
N2331      N2333   1.313       .  A
N2331      N2332   1.334       .  A
N2331     Mn2347   2.379       .  S
N2332      C2338   1.357       .  A
N2333      N2334   1.320       .  A
N2333     Mn2358   2.132       .  S
N2334      C2338   1.344       .  A
N2335      N2336   1.319       .  A
N2335     Mn2347   2.089       .  S
N2336      C2337   1.340       .  A
C2337      C2597   1.477       .  S
C2338      C2504   1.494       .  S
N2339      N2340   1.308   1_455  A
N2339     Mn2369   2.266   1_455  S
N2341      N2342   1.322       .  A
N2341      N2343   1.329       .  A
N2342      C2349   1.354       .  A
N2343      N2344   1.326       .  A
N2344      C2349   1.360       .  A
N2345      N2346   1.309       .  A
N2345     Mn2347   2.301       .  S
C2349      C2525   1.501       .  S
N2350      N2351   1.328       .  A
N2350      N2356   1.338       .  A
N2351      C2359   1.351       .  A
N2352     Mn2370   2.328   1_544  S
N2353      C2360   1.337       .  A
N2354     Mn2358   2.314   1_554  S
N2356      N2357   1.335       .  A
N2357      C2359   1.361       .  A
C2359      C2573   1.499       .  S
N2361      N2362   1.318       .  A
N2361      N2367   1.305       .  A
N2361     Mn2369   2.091       .  S
N2362      C2372   1.342       .  A
N2363      N2364   1.321       .  A
N2363      N2365   1.324       .  A
N2363     Mn2370   2.156       .  S
N2364      C2373   1.345       .  A
N2365      N2366   1.325       .  A
N2365     Mn2369   2.360       .  S
N2366      C2373   1.347       .  A
N2367      N2368   1.332       .  A
N2367     Mn2370   2.371       .  S
N2368      C2372   1.349       .  A
C2372      C2588   1.478       .  S
C2373      C2516   1.473       .  S
N2374      N2375   1.337       .  A
N2374      N2380   1.309       .  A
N2374     Mn2403   2.366       .  S
N2375      C2382   1.356       .  A
N2376      N2378   1.325       .  A
N2376      N2377   1.323       .  A
N2376     Mn2392   2.364       .  S
N2377      C2383   1.344       .  A
N2378      N2379   1.323       .  A
N2378     Mn2403   2.164       .  S
N2379      C2383   1.347       .  A
N2380      N2381   1.317       .  A
N2380     Mn2392   2.122       .  S
N2381      C2382   1.344       .  A
C2382      C2561   1.502       .  S
C2383      C2468   1.483       .  S
N2384     Mn2414   2.333   1_455  S
N2386      N2387   1.323       .  A
N2386      N2388   1.325       .  A
N2387      C2394   1.359       .  A
N2388      N2389   1.314       .  A
N2389      C2394   1.347       .  A
N2390     Mn2392   2.299       .  S
C2394      C2492   1.483       .  S
N2395      N2396   1.334       .  A
N2395      N2401   1.336       .  A
N2396      C2404   1.363       .  A
N2397      N2398   1.311   1_545  A
N2397     Mn2415   2.309   1_545  S
N2398      C2405   1.333   1_565  A
N2399      N2400   1.318       .  A
N2399     Mn2403   2.308       .  S
N2401      N2402   1.320       .  A
N2402      C2404   1.343       .  A
C2404      C2540   1.494       .  S
N2406      N2407   1.317       .  A
N2406      N2412   1.303       .  A
N2406     Mn2414   2.104       .  S
N2407      C2417   1.340       .  A
N2408      N2409   1.316       .  A
N2408      N2410   1.318       .  A
N2408     Mn2415   2.131       .  S
N2409      C2418   1.339       .  A
N2410      N2411   1.336       .  A
N2410     Mn2414   2.403       .  S
N2411      C2418   1.351       .  A
N2412      N2413   1.331       .  A
N2412     Mn2415   2.310       .  S
N2413      C2417   1.349       .  A
C2417      C2552   1.469       .  S
C2418      C2480   1.474       .  S
C2419      C2421   1.587       .  S
C2419      C2423   1.584       .  S
C2419      C2422   1.585       .  S
C2419      C2443   1.864       .  S
C2420      C2424   1.591       .  S
C2420      C2426   1.576       .  S
C2420      C2425   1.580       .  S
C2420      C2442   1.862       .  S
C2421      C2429   1.383       .  A
C2421      C2424   1.476       .  A
C2422      C2433   1.379       .  A
C2422      C2425   1.470       .  A
C2423      C2437   1.379       .  A
C2423      C2426   1.472       .  A
C2424      C2427   1.382       .  A
C2425      C2431   1.376       .  A
C2426      C2434   1.374       .  A
C2427      N2428   1.358       .  A
C2427      H2440   1.078       .  S
N2428      C2429   1.357       .  A
N2428      C2528   1.448       .  S
C2429      H2430   1.078       .  S
C2431      N2432   1.359       .  A
C2431      H2441   1.080       .  S
N2432      C2433   1.360       .  A
N2432      C2501   1.444       .  S
C2433      H2439   1.077       .  S
C2434      N2435   1.352       .  A
C2434      H2436   1.079       .  S
N2435      C2437   1.356       .  A
N2435      C2513   1.436       .  S
C2437      H2438   1.075       .  S
C2442      C2444   1.580   1_556  S
C2442      C2446   1.586   1_556  S
C2442      C2445   1.586   1_556  S
C2443      C2447   1.572       .  S
C2443      C2449   1.587       .  S
C2443      C2448   1.579       .  S
C2444      C2452   1.374       .  A
C2445      C2456   1.384   1_554  A
C2446      C2460   1.383   1_554  A
C2447      C2450   1.372       .  A
C2448      C2454   1.373       .  A
C2449      C2457   1.375       .  A
C2450      H2463   1.079       .  S
N2451      C2452   1.354       .  A
C2452      H2453   1.077   1_554  S
C2454      H2464   1.080       .  S
N2455      C2456   1.357   1_554  A
C2456      H2462   1.079       .  S
C2457      H2459   1.075       .  S
N2458      C2460   1.357   1_554  A
C2460      H2461   1.079       .  S
C2465      C2466   1.394       .  A
C2465      C2470   1.415       .  A
C2466      C2467   1.402       .  A
C2466      H2475   1.082       .  S
C2467      C2468   1.419       .  A
C2467      S2471   1.803       .  S
C2468      C2469   1.402       .  A
C2469      C2470   1.400       .  A
C2469      H2476   1.084       .  S
S2471      H2474   1.407       .  S
S2472      H2473   1.407       .  S
C2477      C2478   1.404       .  A
C2478      C2479   1.392       .  A
C2478      H2487   1.079       .  S
C2479      C2480   1.408       .  A
C2479      S2483   1.801       .  S
C2480      C2481   1.405       .  A
C2482      S2484   1.803       .  S
S2483      H2486   1.406       .  S
S2484      H2485   1.403       .  S
C2489      C2494   1.416       .  A
C2490      H2499   1.083       .  S
C2491      C2492   1.421       .  A
C2492      C2493   1.403       .  A
C2493      C2494   1.397       .  A
C2493      H2500   1.083       .  S
C2494      S2496   1.808       .  S
S2496      H2497   1.395       .  S
C2501      C2502   1.405       .  A
C2501      C2506   1.409       .  A
C2502      C2503   1.406       .  A
C2502      H2511   1.082       .  S
C2503      C2504   1.415       .  A
C2503      S2507   1.800       .  S
C2504      C2505   1.409       .  A
C2505      C2506   1.403       .  A
C2505      H2512   1.084       .  S
C2506      S2508   1.801       .  S
S2507      H2510   1.406       .  S
S2508      H2509   1.407       .  S
C2513      C2514   1.399       .  A
C2513      C2518   1.417       .  A
C2514      C2515   1.401       .  A
C2514      H2523   1.083       .  S
C2515      C2516   1.415       .  A
C2515      S2519   1.803       .  S
C2516      C2517   1.399       .  A
C2517      C2518   1.399       .  A
C2517      H2524   1.085       .  S
C2518      S2520   1.802       .  S
S2519      H2522   1.406       .  S
S2520      H2521   1.403       .  S
C2525      C2526   1.411       .  A
C2525      C2530   1.418       .  A
C2526      C2527   1.407       .  A
C2526      H2535   1.084       .  S
C2527      C2528   1.411       .  A
C2527      S2531   1.802       .  S
C2528      C2529   1.407       .  A
C2529      C2530   1.406       .  A
C2529      H2536   1.083       .  S
C2530      S2532   1.800       .  S
S2531      H2534   1.406       .  S
S2532      H2533   1.406       .  S
C2537      C2538   1.388       .  A
C2537      C2542   1.417       .  A
C2538      C2539   1.398       .  A
C2538      H2547   1.082       .  S
C2539      C2540   1.429       .  A
C2539      S2543   1.807       .  S
C2540      C2541   1.405       .  A
C2541      C2542   1.402       .  A
C2541      H2548   1.084       .  S
C2542      S2544   1.807       .  S
S2543      H2546   1.407       .  S
S2544      H2545   1.397       .  S
C2549      C2550   1.405       .  A
C2549      C2554   1.411       .  A
C2550      C2551   1.398       .  A
C2550      H2559   1.076       .  S
C2551      C2552   1.404       .  A
C2551      S2555   1.803       .  S
C2552      C2553   1.404       .  A
C2553      C2554   1.406       .  A
C2553      H2560   1.083       .  S
C2554      S2556   1.800       .  S
S2555      H2558   1.407       .  S
S2556      H2557   1.406       .  S
C2561      C2562   1.407       .  A
C2561      C2566   1.421       .  A
C2562      C2563   1.396       .  A
C2562      H2571   1.084       .  S
C2563      C2564   1.410       .  A
C2563      S2567   1.802       .  S
C2564      C2565   1.405       .  A
C2565      C2566   1.413       .  A
C2565      H2572   1.083       .  S
C2566      S2568   1.797       .  S
S2567      H2570   1.403       .  S
S2568      H2569   1.406       .  S
C2573      C2574   1.413       .  A
C2573      C2578   1.413       .  A
C2574      C2575   1.407       .  A
C2574      H2583   1.083       .  S
C2575      C2576   1.410       .  A
C2575      S2579   1.801       .  S
C2576      C2577   1.407       .  A
C2577      C2578   1.404       .  A
C2578      S2580   1.797       .  S
S2579      H2582   1.405       .  S
S2580      H2581   1.401       .  S
C2585      C2586   1.401       .  A
C2585      C2590   1.409       .  A
C2586      C2587   1.394       .  A
C2586      H2595   1.084       .  S
C2587      C2588   1.411       .  A
C2587      S2591   1.801       .  S
C2588      C2589   1.407       .  A
C2589      C2590   1.405       .  A
C2589      H2596   1.082       .  S
S2591      H2594   1.407       .  S
S2592      H2593   1.403       .  S
C2597      C2598   1.398       .  A
C2597      C2602   1.412       .  A
C2599      S2603   1.803       .  S
C2600      C2601   1.404       .  A
C2601      C2602   1.411       .  A
C2601      H2608   1.082       .  S
C2602      S2604   1.806       .  S
S2603      H2606   1.399       .  S
S2604      H2605   1.407       .  S
