geometry optimzed in LAMMPS
_audit_creation_date              2020-11-30 
_audit_creation_method            'lammps2cif' 
_symmetry_space_group_name_H-M    'P1' 
_symmetry_Int_Tables_number       1 
_symmetry_cell_setting            triclinic 
loop_ 
_symmetry_equiv_pos_as_xyz 
  x,y,z 
_cell_length_a                    32.28240612 
_cell_length_b                    33.573883515705674 
_cell_length_c                    34.952632317590066 
_cell_angle_alpha                 73.04691414279296 
_cell_angle_beta                  88.2065930431063 
_cell_angle_gamma                 115.81422531860979 
loop_ 
_atom_site_label 
_atom_site_type_symbol 
_atom_site_fract_x 
_atom_site_fract_y 
_atom_site_fract_z 
_atom_site_charge 
O1          O  0.46806295  0.52215706  0.90123841    -0.79500
O2          O  0.46748873  0.49625240  0.08255566    -0.64200
O3          O  0.51009506  0.52738114  0.96986105    -1.10800
C4          C  0.48717329  0.37360649  0.00278447     1.07400
O5          O  0.50548253  0.45446566  0.10264648    -0.77400
O6          O  0.56498900  0.47005411  0.03723719    -0.65000
Ni7        Ni  0.49406903  0.56704973  0.92914025     1.34900
C8          C  0.58156271  0.48148973  0.00004456     0.86100
O9          O  0.50411483  0.57726198  0.02042841    -0.78000
O10         O  0.51905122  0.61563987  0.95324662    -0.88200
C11         C  0.48417389  0.47646717  0.10982055     0.85700
O12         O  0.43240394  0.54679495  0.95572890    -0.66400
O13         O  0.50396909  0.38318901  0.03341568    -0.85700
C14         C  0.40786651  0.51923678  0.99058345     0.86500
C15         C  0.51745208  0.61502702  0.99000042     1.08100
H16         H  0.43967482  0.42977056  0.03746062     0.39900
O17         O  0.47305886  0.44996882  0.02947823    -1.08400
O18         O  0.55562603  0.47516412  0.97339535    -0.65000
Ni19       Ni  0.49132337  0.46390572  0.97258994     1.26300
O20         O  0.42419355  0.50029075  0.01907433    -0.65300
O21         O  0.47294011  0.39934511  0.97829822    -0.77600
C22         C  0.48633442  0.49920801  0.89083703     0.85900
O23         O  0.50645192  0.48033052  0.91493217    -0.64700
Ni24       Ni  0.50388473  0.42187475  0.06501381     1.27400
Ni25       Ni  0.48781174  0.51311044  0.02562798     1.26100
H26         H  0.54383590  0.54381556  0.96590499     0.40400
O27         O  0.48267995  0.53981590  0.39408498    -0.79500
O28         O  0.46892266  0.50513610  0.57862353    -0.64200
O29         O  0.51906444  0.54368894  0.46589264    -1.10800
C30         C  0.49783675  0.38916919  0.49791571     1.07400
O31         O  0.51440697  0.47146005  0.59629943    -0.77400
O32         O  0.57379836  0.48003594  0.53569640    -0.65000
Ni33       Ni  0.50174812  0.58191007  0.42493972     1.34900
C34         C  0.59295600  0.49692642  0.49851505     0.86100
O35         O  0.50432055  0.58827634  0.51858203    -0.78000
O36         O  0.51925248  0.62786333  0.45164498    -0.88200
C37         C  0.48749898  0.48720548  0.60535478     0.85700
O38         O  0.43777105  0.55514814  0.44896501    -0.66400
O39         O  0.50864923  0.39532998  0.53125882    -0.85700
C40         C  0.41228990  0.52571702  0.48291861     0.86500
C41         C  0.51559414  0.62596383  0.48865590     1.08100
H42         H  0.44945785  0.44368306  0.52927541     0.39900
O43         O  0.48266607  0.46483139  0.52333376    -1.08400
O44         O  0.56947632  0.49571408  0.46987650    -0.65000
Ni45       Ni  0.50487904  0.48171884  0.46669775     1.26300
O46         O  0.42921097  0.50990350  0.51271285    -0.65300
O47         O  0.49017109  0.41850376  0.47041753    -0.77600
C48         C  0.50212547  0.51729703  0.38480976     0.85900
O49         O  0.52356713  0.50067178  0.40913648    -0.64700
Ni50       Ni  0.51074618  0.43580376  0.56117665     1.27400
Ni51       Ni  0.49281010  0.52591257  0.52164172     1.26100
H52         H  0.55253483  0.56162923  0.46322557     0.40400
O53         O  0.93921758  0.47000116  0.10191295    -0.79500
O54         O  0.96135108  0.48685917  0.92035756    -0.64200
O55         O  0.96821599  0.45490995  0.03340988    -1.10800
C56         C  0.08946571  0.61358486  0.99210242     1.07400
O57         O  0.03810716  0.51849542  0.90499620    -0.77400
O58         O  0.09694684  0.53359069  0.95764082    -0.65000
Ni59       Ni  0.91372267  0.42508306  0.07430585     1.34900
C60         C  0.09448341  0.50895615  0.99374600     0.86100
O61         O  0.91606532  0.40665661  0.98427673    -0.78000
O62         O  0.88384644  0.37702125  0.05080573    -0.88200
C63         C  0.99835111  0.50380561  0.89440420     0.85700
O64         O  0.88187411  0.45846191  0.04782820    -0.66400
O65         O  0.09038142  0.61231914  0.95593006    -0.85700
C66         C  0.88415032  0.48123461  0.01111813     0.86500
C67         C  0.88689006  0.37350348  0.01556600     1.08100
H68         H  0.99308549  0.55163163  0.96947422     0.39900
O69         O  0.00796608  0.53157762  0.97373277    -1.08400
O70         O  0.06327896  0.49851514  0.02334434    -0.65000
Ni71       Ni  0.01459765  0.51637996  0.02936477     1.26300
O72         O  0.91360707  0.48761468  0.98208033    -0.65300
O73         O  0.06157261  0.57894635  0.02320583    -0.77600
C74         C  0.97920544  0.48433455  0.11210398     0.85900
O75         O  0.01558814  0.49832392  0.08641133    -0.64700
Ni76       Ni  0.06205109  0.56392343  0.93225973     1.27400
Ni77       Ni  0.96227042  0.46963744  0.97756709     1.26100
H78         H  0.98229500  0.43413774  0.03857433     0.40400
O79         O  0.95343262  0.48948755  0.59407983    -0.79500
O80         O  0.97697389  0.51050264  0.41369443    -0.64200
O81         O  0.98818765  0.47894795  0.52513128    -1.10800
C82         C  0.10856417  0.63379099  0.48795872     1.07400
O83         O  0.05393278  0.54924624  0.39120128    -0.77400
O84         O  0.10295799  0.54078292  0.45143939    -0.65000
Ni85       Ni  0.93445623  0.44332884  0.56722412     1.34900
C86         C  0.10598700  0.52556659  0.48845186     0.86100
O87         O  0.93403225  0.43059482  0.47651436    -0.78000
O88         O  0.91108370  0.39401787  0.54420497    -0.88200
C89         C  0.01223113  0.52709355  0.38593968     0.85700
O90         O  0.89511641  0.46787788  0.54193309    -0.66400
O91         O  0.11615114  0.62686218  0.45497721    -0.85700
C92         C  0.89790719  0.49558755  0.50717235     0.86500
C93         C  0.90997181  0.39410473  0.50773068     1.08100
H94         H  0.01155495  0.57685752  0.45925221     0.39900
O95         O  0.02568493  0.55612340  0.46530950    -1.08400
O96         O  0.08295850  0.52796012  0.51727049    -0.65000
Ni97       Ni  0.03062805  0.54149849  0.52161989     1.26300
O98         O  0.93112973  0.51066263  0.47768791    -0.65300
O99         O  0.07307789  0.60489321  0.51594569    -0.77600
C100        C  0.99312488  0.50818933  0.60405773     0.85900
O101        O  0.03050724  0.52448733  0.57882578    -0.64700
Ni102      Ni  0.08177747  0.58520930  0.42611059     1.27400
Ni103      Ni  0.98018612  0.49376348  0.47000913     1.26100
H104        H  0.00500547  0.46074429  0.52853240     0.40400
O105        O  0.50934904  0.03333632  0.90457378    -0.79500
O106        O  0.51091022  0.01084997  0.08522331    -0.64200
O107        O  0.53410021  0.00564362  0.97998560    -1.10800
C108        C  0.37904363  0.87823177  0.02069870     1.07400
O109        O  0.48170569  0.93374048  0.11385212    -0.77400
O110        O  0.46792105  0.87568093  0.06980178    -0.65000
Ni111      Ni  0.55890862  0.06066162  0.93286512     1.34900
C112        C  0.48956138  0.87991291  0.03667620     0.86100
O113        O  0.58590013  0.05893761  0.02535842    -0.78000
O114        O  0.61069750  0.09175987  0.95732595    -0.88200
C115        C  0.49735345  0.97455981  0.11665875     0.85700
O116        O  0.52809097  0.09302504  0.94741579    -0.66400
O117        O  0.38469699  0.87576365  0.05716484    -0.85700
C118        C  0.50860743  0.08988108  0.98105166     0.86500
C119        C  0.61648156  0.08938483  0.99379308     1.08100
H120        H  0.44032543  0.97560066  0.03401478     0.39900
O121        O  0.46162973  0.96221606  0.03569005    -1.08400
O122        O  0.49478132  0.91067704  0.00273019    -0.65000
Ni123      Ni  0.47283643  0.95694216  0.98393590     1.26300
O124        O  0.50294512  0.05799297  0.01432069    -0.65300
O125        O  0.41056707  0.90794640  0.98951930    -0.77600
C126        C  0.49705804  0.99385908  0.89977628     0.85900
O127        O  0.48674336  0.95721805  0.93020762    -0.64700
Ni128      Ni  0.43497235  0.90695977  0.08297757     1.27400
Ni129      Ni  0.52349541  0.01046372  0.03172929     1.26100
H130        H  0.55593703  0.99303070  0.98099806     0.40400
O131        O  0.52961848  0.05415657  0.39464790    -0.79500
O132        O  0.52936320  0.03474337  0.57861196    -0.64200
O133        O  0.55017226  0.02737564  0.47297020    -1.10800
C134        C  0.39158379  0.90533519  0.51584208     1.07400
O135        O  0.50099712  0.95820093  0.60328977    -0.77400
O136        O  0.47695668  0.89686059  0.56310277    -0.65000
Ni137      Ni  0.57622484  0.08194462  0.42526497     1.34900
C138        C  0.49901791  0.90074997  0.53043768     0.86100
O139        O  0.60540875  0.07938800  0.51849563    -0.78000
O140        O  0.62629421  0.11451958  0.45060503    -0.88200
C141        C  0.51369894  0.99706736  0.60913867     0.85700
O142        O  0.54208943  0.11201187  0.43819806    -0.66400
O143        O  0.39691033  0.90437390  0.55210261    -0.85700
C144        C  0.52584719  0.11169811  0.47189540     0.86500
C145        C  0.63479115  0.11087024  0.48657379     1.08100
H146        H  0.45816636  0.00283335  0.52670803     0.39900
O147        O  0.47805085  0.98785140  0.52862518    -1.08400
O148        O  0.50672899  0.93296451  0.49696463    -0.65000
Ni149      Ni  0.48733635  0.98062639  0.47771137     1.26300
O150        O  0.52439068  0.08349855  0.50606151    -0.65300
O151        O  0.42379088  0.93306745  0.48453656    -0.77600
C152        C  0.51300186  0.01274538  0.39309735     0.85900
O153        O  0.49935384  0.97742752  0.42533365    -0.64700
Ni154      Ni  0.45003948  0.93306891  0.57615280     1.27400
Ni155      Ni  0.54138085  0.03357153  0.52475511     1.26100
H156        H  0.57082959  0.01332604  0.47405348     0.40400
C157        C  0.51248633  0.96430314  0.80542621     0.14000
C158        C  0.49943374  0.99384346  0.77652929     0.01000
C159        C  0.48291943  0.02124446  0.78926083     0.16000
C160        C  0.48107456  0.02038088  0.82958993     0.25400
C161        C  0.49467754  0.99128759  0.85827653    -0.40900
C162        C  0.50948326  0.96254039  0.84598908     0.32400
C163        C  0.50261046  0.99549459  0.73341725     0.01100
F164        F  0.46801105  0.04848949  0.76276146    -0.13300
F165        F  0.52334579  0.93445998  0.87276599    -0.13800
C166        C  0.48187582  0.95360957  0.72453035     0.16000
C167        C  0.48600222  0.95435502  0.68442798     0.25400
C168        C  0.51038183  0.99727717  0.65173028    -0.40900
C169        C  0.53006250  0.03947396  0.66053670     0.32400
C170        C  0.52659835  0.03852281  0.70098152     0.14100
F171        F  0.45667131  0.91164392  0.75479309    -0.13200
F172        F  0.55308009  0.08169249  0.63018249    -0.13800
F173        F  0.46516982  0.91263392  0.67785092    -0.16000
F174        F  0.54764109  0.07967898  0.70845985    -0.14600
F175        F  0.52975331  0.93827398  0.79408744    -0.14600
F176        F  0.46546045  0.04768224  0.84072966    -0.16000
C177        C  0.50306129  0.95876790  0.30996682     0.14000
C178        C  0.50513589  0.99479871  0.27573811     0.01000
C179        C  0.50828175  0.03606568  0.28062912     0.16000
C180        C  0.51028575  0.04168135  0.31872581     0.25400
C181        C  0.50854319  0.00580360  0.35305624    -0.40900
C182        C  0.50441471  0.96402479  0.34825683     0.32400
C183        C  0.50385802  0.98937280  0.23501216     0.01100
F184        F  0.50874441  0.07086053  0.24851795    -0.13300
F185        F  0.50323328  0.92871951  0.38030284    -0.13800
C186        C  0.46749681  0.94989904  0.22956685     0.16000
C187        C  0.46607872  0.94479830  0.19126151     0.25400
C188        C  0.50042761  0.97956644  0.15734059    -0.40900
C189        C  0.53657856  0.01934347  0.16265345     0.32400
C190        C  0.53859880  0.02389523  0.20121646     0.14100
F191        F  0.43242929  0.91687421  0.26114014    -0.13200
F192        F  0.57054734  0.05337720  0.13071892    -0.13800
F193        F  0.42992929  0.90662831  0.18705753    -0.16000
F194        F  0.57494554  0.06176061  0.20565649    -0.14600
F195        F  0.50107646  0.91889284  0.30614971    -0.14600
F196        F  0.51346255  0.08222506  0.32192194    -0.16000
C197        C  0.30382666  0.81253003  0.47866783     0.14000
C198        C  0.26171420  0.79737726  0.50457804     0.01000
C199        C  0.26210076  0.81961804  0.53310885     0.16000
C200        C  0.30405146  0.85576758  0.53608904     0.25400
C201        C  0.34626303  0.87067624  0.51025538    -0.40900
C202        C  0.34549563  0.84900822  0.48118708     0.32400
C203        C  0.21818409  0.75750556  0.50207602     0.01100
F204        F  0.22188316  0.80639506  0.55803999    -0.13300
F205        F  0.38563620  0.86124867  0.45665797    -0.13800
C206        C  0.19372372  0.71621997  0.53604717     0.16000
C207        C  0.15657206  0.67643928  0.53199079     0.25400
C208        C  0.14363472  0.67715708  0.49378938    -0.40900
C209        C  0.16687765  0.71910192  0.46029843     0.32400
C210        C  0.20340480  0.75893821  0.46450856     0.14100
F211        F  0.20758053  0.71343343  0.57259667    -0.13200
F212        F  0.15455386  0.72141493  0.42322287    -0.13800
F213        F  0.13537885  0.63632460  0.56479356    -0.16000
F214        F  0.22519241  0.79879289  0.43152578    -0.14600
F215        F  0.30502573  0.79049513  0.45197732    -0.14600
F216        F  0.30337698  0.87628453  0.56416544    -0.16000
C217        C  0.72728930  0.19393176  0.52986957     0.14000
C218        C  0.76326185  0.22304213  0.49556773     0.01000
C219        C  0.75860341  0.21207154  0.45958996     0.16000
C220        C  0.71773871  0.17458432  0.45711434     0.25400
C221        C  0.68062129  0.14655743  0.49089982    -0.40900
C222        C  0.68668229  0.15581542  0.52773018     0.32400
C223        C  0.80412478  0.26635443  0.49653438     0.01100
F224        F  0.79354094  0.23815936  0.42649028    -0.13300
F225        F  0.65236848  0.12959003  0.56126186    -0.13800
C226        C  0.83090432  0.26447915  0.52736862     0.16000
C227        C  0.86666993  0.30587855  0.53013698     0.25400
C228        C  0.87693184  0.34997658  0.50169498    -0.40900
C229        C  0.85137989  0.35166077  0.46990105     0.32400
C230        C  0.81518047  0.31036887  0.46752156     0.14100
F231        F  0.82215999  0.22251739  0.55507953    -0.13200
F232        F  0.85906500  0.39355733  0.44276330    -0.13800
F233        F  0.89095833  0.30285809  0.56095310    -0.16000
F234        F  0.78918638  0.31374206  0.43808773    -0.14600
F235        F  0.73024757  0.20383986  0.56497707    -0.14600
F236        F  0.71448032  0.16627469  0.42127714    -0.16000
C237        C  0.95546858  0.47643116  0.80025499     0.14000
C238        C  0.99502508  0.50900989  0.76964338     0.01000
C239        C  0.03476506  0.54025059  0.78034495     0.16000
C240        C  0.03557493  0.53823201  0.82075985     0.25400
C241        C  0.99620839  0.50555116  0.85156803    -0.40900
C242        C  0.95582921  0.47509149  0.84074214     0.32400
C243        C  0.99524503  0.51033246  0.72668366     0.01100
F244        F  0.07279412  0.57348870  0.75145588    -0.13300
F245        F  0.91714666  0.44310088  0.86940033    -0.13800
C246        C  0.95924240  0.51380122  0.70661064     0.16000
C247        C  0.95888555  0.51378809  0.66658951     0.25400
C248        C  0.99515120  0.51140450  0.64541008    -0.40900
C249        C  0.03196975  0.50953135  0.66500549     0.32400
C250        C  0.03170590  0.50838023  0.70536301     0.14100
F251        F  0.92465646  0.51788035  0.72556314    -0.13200
F252        F  0.06726520  0.50672050  0.64572645    -0.13800
F253        F  0.92326874  0.51674421  0.64839489    -0.16000
F254        F  0.06643473  0.50381506  0.72403428    -0.14600
F255        F  0.91685715  0.44496590  0.79117868    -0.14600
F256        F  0.07488390  0.56918107  0.82950193    -0.16000
C257        C  0.96344935  0.46931697  0.30769545     0.14000
C258        C  0.99541328  0.50237769  0.27177656     0.01000
C259        C  0.03227733  0.54391684  0.27363155     0.16000
C260        C  0.03766361  0.55189065  0.31065015     0.25400
C261        C  0.00542195  0.51914675  0.34654729    -0.40900
C262        C  0.96811527  0.47786271  0.34462117     0.32400
C263        C  0.99025185  0.49432610  0.23218410     0.01100
F264        F  0.06275205  0.57735369  0.23933655    -0.13300
F265        F  0.93725481  0.44476874  0.37878544    -0.13800
C266        C  0.94781502  0.48416611  0.21800637     0.16000
C267        C  0.94393183  0.47981134  0.17954950     0.25400
C268        C  0.98291982  0.48682072  0.15376377    -0.40900
C269        C  0.02507060  0.49584427  0.16850369     0.32400
C270        C  0.02843402  0.49889929  0.20746688     0.14100
F271        F  0.91037911  0.48005373  0.24080197    -0.13200
F272        F  0.06312303  0.50144293  0.14543232    -0.13800
F273        F  0.90202474  0.46973174  0.16743493    -0.16000
F274        F  0.06912943  0.50616270  0.22117661    -0.14600
F275        F  0.92841327  0.42809482  0.30729769    -0.14600
F276        F  0.07417634  0.59214102  0.31116362    -0.16000
C277        C  0.24955759  0.79281244  0.03834913     0.14000
C278        C  0.24735484  0.77552809  0.00600453     0.01000
C279        C  0.28828129  0.79377025  0.97733744     0.16000
C280        C  0.33092133  0.82785101  0.98155778     0.25400
C281        C  0.33346268  0.84427220  0.01464289    -0.40900
C282        C  0.29215248  0.82649451  0.04286168     0.32400
C283        C  0.20339588  0.73579580  0.00411176     0.01100
F284        F  0.28741713  0.77695561  0.94627419    -0.13300
F285        F  0.29287408  0.84166420  0.07496501    -0.13800
C286        C  0.18210653  0.73990344  0.96970706     0.16000
C287        C  0.14320362  0.70078815  0.96671468     0.25400
C288        C  0.12487379  0.65679516  0.99812857    -0.40900
C289        C  0.14485041  0.65349451  0.03343912     0.32400
C290        C  0.18378498  0.69253900  0.03627899     0.14100
F291        F  0.19937238  0.78168114  0.93878117    -0.13200
F292        F  0.12880397  0.61169218  0.06416093    -0.13800
F293        F  0.12386538  0.70579232  0.93280455    -0.16000
F294        F  0.20402155  0.68737046  0.06962469    -0.14600
F295        F  0.21032318  0.77670848  0.06583079    -0.14600
F296        F  0.37013980  0.84287010  0.95446651    -0.16000
C297        C  0.79815413  0.28690889  0.97362727     0.14000
C298        C  0.78110391  0.24488644  0.00689337     0.01000
C299        C  0.80133691  0.24457661  0.04184751     0.16000
C300        C  0.83727675  0.28609660  0.04398655     0.25400
C301        C  0.85341843  0.32868633  0.01118310    -0.40900
C302        C  0.83406433  0.32849789  0.97569827     0.32400
C303        C  0.74033857  0.20220175  0.00585358     0.01100
F304        F  0.78585722  0.20411564  0.07406773    -0.13300
F305        F  0.84781792  0.36905338  0.94398003    -0.13800
C306        C  0.74266299  0.18189584  0.97649705     0.16000
C307        C  0.70274403  0.14403739  0.97323766     0.25400
C308        C  0.66002378  0.12572944  0.99961075    -0.40900
C309        C  0.65810844  0.14560661  0.02951289     0.32400
C310        C  0.69793008  0.18352800  0.03258132     0.14100
F311        F  0.78350589  0.19928004  0.95063803    -0.13200
F312        F  0.61688970  0.13049286  0.05392036    -0.13800
F313        F  0.70573484  0.12562367  0.94407931    -0.16000
F314        F  0.69445577  0.20370168  0.06020715    -0.14600
F315        F  0.77831876  0.28810511  0.93989564    -0.14600
F316        F  0.85605978  0.28471301  0.07828824    -0.16000
C317        C  0.53766832  0.71591314  0.54205884     0.14000
C318        C  0.53023137  0.75016660  0.51308538     0.01000
C319        C  0.52023942  0.74421476  0.47567940     0.16000
C320        C  0.51724924  0.70490088  0.46744546     0.25400
C321        C  0.52312099  0.66961215  0.49679612    -0.40900
C322        C  0.53381574  0.67585107  0.53415434     0.32400
C323        C  0.52971428  0.79068502  0.52208496     0.01100
F324        F  0.51104971  0.77549799  0.44754982    -0.13300
F325        F  0.54076866  0.64338393  0.56302267    -0.13800
C326        C  0.55495042  0.83653205  0.49383414     0.16000
C327        C  0.54684758  0.87300633  0.49757717     0.25400
C328        C  0.51427271  0.86480022  0.53045701    -0.40900
C329        C  0.49274976  0.82000047  0.56098556     0.32400
C330        C  0.49976176  0.78316839  0.55644865     0.14100
F331        F  0.58616349  0.84560923  0.46152051    -0.13200
F332        F  0.46225939  0.81066835  0.59393808    -0.13800
F333        F  0.56985861  0.91598220  0.46814875    -0.16000
F334        F  0.47443926  0.73935811  0.58417884    -0.14600
F335        F  0.54866984  0.72123217  0.57804236    -0.14600
F336        F  0.50634936  0.70057689  0.43116189    -0.16000
C337        C  0.47440338  0.17942200  0.50861742     0.14000
C338        C  0.49330226  0.22222410  0.47595014     0.01000
C339        C  0.51817671  0.22637848  0.44011361     0.16000
C340        C  0.52642772  0.18940397  0.43782141     0.25400
C341        C  0.51022234  0.14750559  0.47160724    -0.40900
C342        C  0.48282727  0.14252263  0.50657646     0.32400
C343        C  0.49247511  0.26415462  0.48138807     0.01100
F344        F  0.53744776  0.26753312  0.40831779    -0.13300
F345        F  0.46528487  0.10246176  0.53944104    -0.13800
C346        C  0.51316087  0.27999059  0.51227180     0.16000
C347        C  0.51456305  0.32012805  0.51747564     0.25400
C348        C  0.49539756  0.34607129  0.49166792    -0.40900
C349        C  0.47463271  0.33015479  0.46049708     0.32400
C350        C  0.47324985  0.28955094  0.45543566     0.14100
F351        F  0.53346885  0.25719412  0.53692317    -0.13200
F352        F  0.45520688  0.35339799  0.43519732    -0.13800
F353        F  0.53589252  0.33392776  0.54754159    -0.16000
F354        F  0.45268855  0.27471052  0.42550215    -0.14600
F355        F  0.44923166  0.17404780  0.54328054    -0.14600
F356        F  0.55304686  0.19613087  0.40341050    -0.16000
C357        C  0.20832798  0.51129364  0.52775812     0.14000
C358        C  0.21895886  0.49071518  0.50169260     0.01000
C359        C  0.18767068  0.47488275  0.47597496     0.16000
C360        C  0.14877544  0.48322601  0.47375079     0.25400
C361        C  0.14015051  0.50715568  0.49751652    -0.40900
C362        C  0.16908500  0.51917827  0.52589811     0.32400
C363        C  0.26605479  0.49325330  0.49643908     0.01100
F364        F  0.19628372  0.45364109  0.45132945    -0.13300
F365        F  0.16201984  0.54255579  0.54913897    -0.13800
C366        C  0.28277311  0.47270746  0.52916850     0.16000
C367        C  0.32969813  0.48131696  0.52470492     0.25400
C368        C  0.36088581  0.51094988  0.48733461    -0.40900
C369        C  0.34269366  0.52880484  0.45397744     0.32400
C370        C  0.29621872  0.52039372  0.45866680     0.14100
F371        F  0.25378671  0.44487131  0.56563202    -0.13200
F372        F  0.37003705  0.55587188  0.41665425    -0.13800
F373        F  0.34462821  0.46146236  0.55724344    -0.16000
F374        F  0.28135824  0.54113949  0.42652403    -0.14600
F375        F  0.23824468  0.52762404  0.55242496    -0.14600
F376        F  0.12057360  0.46963168  0.44709375    -0.16000
C377        C  0.71168821  0.51528307  0.45594797     0.14000
C378        C  0.73832032  0.53190219  0.48419405     0.01000
C379        C  0.71926306  0.54536384  0.51187597     0.16000
C380        C  0.67270568  0.53702161  0.51463374     0.25400
C381        C  0.64453679  0.51614623  0.48901590    -0.40900
C382        C  0.66526614  0.50787582  0.45808787     0.32400
C383        C  0.78172275  0.52720693  0.48982601     0.01100
F384        F  0.74491627  0.56375549  0.53816472    -0.13300
F385        F  0.63940508  0.48843055  0.43239775    -0.13800
C386        C  0.82006816  0.54774285  0.45781199     0.16000
C387        C  0.85864721  0.53888549  0.46338291     0.25400
C388        C  0.85959260  0.50930585  0.50124219    -0.40900
C389        C  0.82174772  0.49068252  0.53359607     0.32400
C390        C  0.78334019  0.49900768  0.52774237     0.14100
F391        F  0.82008786  0.57621624  0.42112229    -0.13200
F392        F  0.82083187  0.46310803  0.57112671    -0.13800
F393        F  0.89461812  0.55884637  0.43153528    -0.16000
F394        F  0.74646085  0.47750167  0.55905445    -0.14600
F395        F  0.72906555  0.50216007  0.42869265    -0.14600
F396        F  0.65448024  0.54729017  0.54375028    -0.16000
C397        C  0.44331652  0.49245960  0.79177796     0.14000
C398        C  0.47862997  0.48879967  0.77076862     0.01000
C399        C  0.51555074  0.48665512  0.79028309     0.16000
C400        C  0.51726894  0.48847900  0.82974177     0.25400
C401        C  0.48274448  0.49368317  0.85024885    -0.40900
C402        C  0.44555974  0.49534162  0.83088580     0.32400
C403        C  0.47700000  0.48684546  0.72876218     0.01100
F404        F  0.55082295  0.48406879  0.77071122    -0.13300
F405        F  0.41072541  0.49885801  0.85009558    -0.13800
C406        C  0.47204554  0.52131612  0.69753857     0.16000
C407        C  0.47341099  0.52063555  0.65754673     0.25400
C408        C  0.48042739  0.48587597  0.64796748    -0.40900
C409        C  0.48372707  0.45058130  0.67956109     0.32400
C410        C  0.48164678  0.45087257  0.71941204     0.14100
F411        F  0.46779078  0.55680337  0.70535069    -0.13200
F412        F  0.48894605  0.41543237  0.67194659    -0.13800
F413        F  0.47014122  0.55523239  0.62796626    -0.16000
F414        F  0.48409676  0.41570464  0.74900829    -0.14600
F415        F  0.40604442  0.49232700  0.77475386    -0.14600
F416        F  0.55373075  0.48686787  0.84724806    -0.16000
C417        C  0.52850941  0.50023947  0.28580725     0.14000
C418        C  0.48844586  0.49652982  0.26900386     0.01000
C419        C  0.45261519  0.49845052  0.29096143     0.16000
C420        C  0.45702096  0.50475400  0.32870925     0.25400
C421        C  0.49724895  0.50884274  0.34550076    -0.40900
C422        C  0.53275673  0.50602428  0.32384388     0.32400
C423        C  0.48390330  0.49002584  0.22885181     0.01100
F424        F  0.41285074  0.49327173  0.27619764    -0.13300
F425        F  0.57225906  0.51044897  0.33880293    -0.13800
C426        C  0.48628757  0.45157777  0.22268774     0.16000
C427        C  0.48493187  0.44657695  0.18438891     0.25400
C428        C  0.48082682  0.47987167  0.15122014    -0.40900
C429        C  0.47614252  0.51723059  0.15797064     0.32400
C430        C  0.47793405  0.52237101  0.19639888     0.14100
F431        F  0.48979595  0.41861187  0.25397156    -0.13200
F432        F  0.47156337  0.54978780  0.12715108    -0.13800
F433        F  0.48750210  0.40881826  0.17993407    -0.16000
F434        F  0.47549122  0.55989705  0.20154967    -0.14600
F435        F  0.56405760  0.49933140  0.26488117    -0.14600
F436        F  0.42132465  0.50582414  0.34926744    -0.16000
C437        C  0.56010306  0.82473246  0.00604507     0.14000
C438        C  0.53066712  0.77664463  0.02728112     0.01000
C439        C  0.49130600  0.76366393  0.05570797     0.16000
C440        C  0.47965152  0.79770220  0.06062647     0.25400
C441        C  0.50705091  0.84552883  0.03705261    -0.40900
C442        C  0.54838671  0.85887719  0.01086634     0.32400
C443        C  0.53671138  0.73966937  0.01611365     0.01100
F444        F  0.46199887  0.71756258  0.07648114    -0.13300
F445        F  0.57692565  0.90492967  0.98932988    -0.13800
C446        C  0.54030909  0.70306907  0.04554567     0.16000
C447        C  0.53700723  0.66381871  0.03645690     0.25400
C448        C  0.52941740  0.66003720  0.99778060    -0.40900
C449        C  0.52943504  0.69861809  0.96752648     0.32400
C450        C  0.53301188  0.73781532  0.97665635     0.14100
F451        F  0.54580688  0.70479551  0.08348162    -0.13200
F452        F  0.52318247  0.69754724  0.92954270    -0.13800
F453        F  0.54042701  0.62919161  0.06584465    -0.16000
F454        F  0.52952839  0.77263167  0.94750559    -0.14600
F455        F  0.59938274  0.83846221  0.97962047    -0.14600
F456        F  0.43938972  0.78331322  0.08607755    -0.16000
C457        C  0.44913904  0.26199686  0.97527094     0.14000
C458        C  0.48297715  0.24810600  0.98874063     0.01000
C459        C  0.51890391  0.27660097  0.00483603     0.16000
C460        C  0.52063276  0.31773101  0.00829387     0.25400
C461        C  0.48623765  0.33146191  0.99581250    -0.40900
C462        C  0.45081037  0.30346264  0.97863157     0.32400
C463        C  0.48214182  0.20454368  0.98561058     0.01100
F464        F  0.55274009  0.26466636  0.01697096    -0.13300
F465        F  0.41699810  0.31532013  0.96635804    -0.13800
C466        C  0.49901791  0.20413433  0.94835690     0.16000
C467        C  0.50533600  0.16594386  0.94638025     0.25400
C468        C  0.49460250  0.12686422  0.98184495    -0.40900
C469        C  0.47514749  0.12652259  0.01884360     0.32400
C470        C  0.46952371  0.16514002  0.02067412     0.14100
F471        F  0.51195668  0.24206564  0.91414741    -0.13200
F472        F  0.46315627  0.08969152  0.05378908    -0.13800
F473        F  0.52412584  0.16858163  0.90987045    -0.16000
F474        F  0.45322473  0.16479841  0.05711381    -0.14600
F475        F  0.41399037  0.23487970  0.95967421    -0.14600
F476        F  0.55663607  0.34459218  0.02338360    -0.16000
C477        C  0.19527831  0.48455423  0.97296845     0.14000
C478        C  0.21568795  0.48756155  0.00756724     0.01000
C479        C  0.19207857  0.49043072  0.04032294     0.16000
C480        C  0.15017083  0.49346946  0.03733956     0.25400
C481        C  0.13170473  0.49436018  0.00123707    -0.40900
C482        C  0.15379551  0.48797163  0.96975354     0.32400
C483        C  0.26464982  0.49524694  0.00622076     0.01100
F484        F  0.21139328  0.49382634  0.07391592    -0.13300
F485        F  0.13632253  0.48707758  0.93499005    -0.13800
C486        C  0.30074633  0.53833790  0.98055986     0.16000
C487        C  0.34698575  0.54600429  0.97631842     0.25400
C488        C  0.35845429  0.51054681  0.99757862    -0.40900
C489        C  0.32229820  0.46751786  0.02406210     0.32400
C490        C  0.27569241  0.46003637  0.02845760     0.14100
F491        F  0.29104432  0.57319167  0.95932803    -0.13200
F492        F  0.33169902  0.43212075  0.04430756    -0.13800
F493        F  0.38069586  0.58858189  0.95142210    -0.16000
F494        F  0.24122084  0.41806463  0.05342117    -0.14600
F495        F  0.21709348  0.48095326  0.94123537    -0.14600
F496        F  0.12996021  0.49956234  0.06834915    -0.16000
C497        C  0.71097886  0.54074629  0.00108063     0.14000
C498        C  0.72683870  0.51767801  0.98119014     0.01000
C499        C  0.69610179  0.48924319  0.96126907     0.16000
C500        C  0.64940987  0.48075957  0.96440110     0.25400
C501        C  0.63246590  0.49960818  0.98830212    -0.40900
C502        C  0.66399292  0.53097857  0.00537415     0.32400
C503        C  0.77188044  0.51666869  0.98724379     0.01100
F504        F  0.70992789  0.46619894  0.94189507    -0.13300
F505        F  0.64881197  0.55065136  0.02769464    -0.13800
C506        C  0.78041897  0.50328063  0.02702006     0.16000
C507        C  0.81897732  0.49556876  0.03425443     0.25400
C508        C  0.84919421  0.49899090  0.00205504    -0.40900
C509        C  0.84245004  0.51543939  0.96185452     0.32400
C510        C  0.80430007  0.52444646  0.95457907     0.14100
F511        F  0.74964508  0.49452444  0.05952717    -0.13200
F512        F  0.87152104  0.52110300  0.92956834    -0.17400
F513        F  0.82541932  0.48292049  0.07331866    -0.16000
F514        F  0.79838395  0.53961780  0.91565583    -0.14600
F515        F  0.74044301  0.57062653  0.01850956    -0.14600
F516        F  0.61975984  0.45040694  0.94743034    -0.16000
loop_ 
_geom_bond_atom_site_label_1 
_geom_bond_atom_site_label_2 
_geom_bond_distance 
_geom_bond_site_symmetry_2 
_ccdc_geom_bond_type 
O1           Ni7   1.932       .  S
O1           C22   1.273       .  A
O2          Ni25   1.910       .  S
O2           C11   1.270       .  A
O3           Ni7   1.899       .  S
O3          Ni25   1.901   1_556  S
O3          Ni19   1.916       .  S
O3           H26   0.966       .  S
C4           O21   1.277   1_554  A
C4           O13   1.276       .  A
C4          C461   1.492   1_554  S
O5          Ni24   1.930       .  S
O5           C11   1.273       .  A
O6          Ni24   1.907       .  S
O6            C8   1.269       .  A
Ni7          O10   1.929       .  S
Ni7          O12   1.904       .  S
C8           O18   1.274   1_554  A
C8          C501   1.477   1_554  S
O9          Ni25   1.931       .  S
O9           C15   1.278   1_554  A
O10          C15   1.278       .  A
C11         C428   1.489       .  S
O12          C14   1.270       .  A
O13         Ni24   1.936       .  S
C14          O20   1.277   1_556  A
C14         C488   1.489       .  S
C15         C448   1.498       .  S
H16          O17   0.966       .  S
O17         Ni25   1.921       .  S
O17         Ni19   1.914   1_554  S
O17         Ni24   1.906       .  S
O18         Ni19   1.944       .  S
Ni19         O23   1.913       .  S
Ni19         O21   1.926       .  S
O20         Ni25   1.942       .  S
C22          O23   1.271       .  A
C22         C401   1.485       .  S
O27         Ni33   1.927       .  S
O27          C48   1.271       .  A
O28         Ni51   1.917       .  S
O28          C37   1.271       .  A
O29         Ni33   1.900       .  S
O29         Ni51   1.910       .  S
O29         Ni45   1.917       .  S
O29          H52   0.966       .  S
C30          O47   1.277       .  A
C30          O39   1.275       .  A
C30         C348   1.495       .  S
O31         Ni50   1.923       .  S
O31          C37   1.271       .  A
O32         Ni50   1.904       .  S
O32          C34   1.268       .  A
Ni33         O36   1.920       .  S
Ni33         O38   1.901       .  S
C34          O44   1.274       .  A
C34         C381   1.485       .  S
O35         Ni51   1.929       .  S
O35          C41   1.277       .  A
O36          C41   1.276       .  A
C37         C408   1.484       .  S
O38          C40   1.268       .  A
O39         Ni50   1.923       .  S
C40          O46   1.277       .  A
C40         C368   1.499       .  S
C41         C321   1.492       .  S
H42          O43   0.966       .  S
O43         Ni51   1.913       .  S
O43         Ni45   1.912       .  S
O43         Ni50   1.901       .  S
O44         Ni45   1.943       .  S
Ni45         O49   1.913       .  S
Ni45         O47   1.925       .  S
O46         Ni51   1.944       .  S
C48          O49   1.269       .  A
C48         C421   1.482       .  S
O53         Ni59   1.924       .  S
O53          C74   1.270       .  A
O54         Ni77   1.918       .  S
O54          C63   1.270       .  A
O55         Ni59   1.901       .  S
O55         Ni77   1.906   1_554  S
O55         Ni71   1.910   1_655  S
O55          H78   0.966       .  S
C56          O73   1.279   1_556  A
C56          O65   1.277       .  A
C56         C288   1.485       .  S
O57         Ni76   1.923       .  S
O57          C63   1.270   1_455  A
O58         Ni76   1.905       .  S
O58          C60   1.269       .  A
Ni59         O62   1.917       .  S
Ni59         O64   1.905       .  S
C60          O70   1.274   1_556  A
C60         C481   1.487   1_556  S
O61         Ni77   1.922       .  S
O61          C67   1.279   1_556  A
O62          C67   1.276       .  A
C63         C241   1.486       .  S
O64          C66   1.269       .  A
O65         Ni76   1.923       .  S
C66          O72   1.271   1_554  A
C66         C508   1.492       .  S
C67         C301   1.478       .  S
H68          O69   0.966   1_655  S
O69         Ni77   1.916   1_455  S
O69         Ni71   1.905   1_556  S
O69         Ni76   1.898       .  S
O70         Ni71   1.936       .  S
Ni71         O75   1.913       .  S
Ni71         O73   1.924       .  S
O72         Ni77   1.929       .  S
C74          O75   1.270   1_655  A
C74         C268   1.488       .  S
O79         Ni85   1.928       .  S
O79         C100   1.270       .  A
O80        Ni103   1.902       .  S
O80          C89   1.269   1_655  A
O81         Ni85   1.900       .  S
O81        Ni103   1.900       .  S
O81         Ni97   1.907   1_655  S
O81         H104   0.966   1_655  S
C82          O99   1.272       .  A
C82          O91   1.277       .  A
C82         C208   1.482       .  S
O83        Ni102   1.933       .  S
O83          C89   1.274       .  A
O84        Ni102   1.906       .  S
O84          C86   1.269       .  A
Ni85         O88   1.919       .  S
Ni85         O90   1.905       .  S
C86          O96   1.275       .  A
C86         C361   1.483       .  S
O87        Ni103   1.927       .  S
O87          C93   1.278       .  A
O88          C93   1.276       .  A
C89         C261   1.482       .  S
O90          C92   1.269       .  A
O91        Ni102   1.936       .  S
C92          O98   1.274       .  A
C92         C388   1.497       .  S
C93         C228   1.482       .  S
H94          O95   0.967       .  S
O95        Ni103   1.917   1_455  S
O95         Ni97   1.914       .  S
O95        Ni102   1.906       .  S
O96         Ni97   1.943       .  S
Ni97        O101   1.912       .  S
Ni97         O99   1.909       .  S
O98        Ni103   1.936       .  S
C100        O101   1.269   1_655  A
C100        C248   1.482       .  S
O105       Ni111   1.931       .  S
O105        C126   1.272   1_545  A
O106       Ni129   1.906       .  S
O106        C115   1.268   1_545  A
O107       Ni111   1.903       .  S
O107       Ni129   1.896   1_556  S
O107       Ni123   1.908   1_545  S
O107        H130   0.965   1_545  S
C108        O125   1.277   1_554  A
C108        O117   1.277       .  A
C108        C281   1.486       .  S
O109       Ni128   1.933       .  S
O109        C115   1.273       .  A
O110       Ni128   1.916       .  S
O110        C112   1.271       .  A
Ni111       O114   1.925       .  S
Ni111       O116   1.913       .  S
C112        O122   1.274       .  A
C112        C441   1.487       .  S
O113       Ni129   1.914       .  S
O113        C119   1.278   1_554  A
O114        C119   1.278       .  A
C115        C188   1.481       .  S
O116        C118   1.270       .  A
O117       Ni128   1.925       .  S
C118        O124   1.274   1_556  A
C118        C468   1.502       .  S
C119        C308   1.475       .  S
H120        O121   0.967       .  S
O121       Ni129   1.915   1_565  S
O121       Ni123   1.907   1_554  S
O121       Ni128   1.910       .  S
O122       Ni123   1.934   1_554  S
Ni123       O127   1.914       .  S
Ni123       O125   1.922       .  S
O124       Ni129   1.933       .  S
C126        O127   1.270       .  A
C126        C161   1.480       .  S
O131       Ni137   1.934       .  S
O131        C152   1.273       .  A
O132       Ni155   1.925       .  S
O132        C141   1.271   1_545  A
O133       Ni137   1.906       .  S
O133       Ni155   1.908       .  S
O133       Ni149   1.913   1_545  S
O133        H156   0.966       .  S
C134        O151   1.279       .  A
C134        O143   1.277       .  A
C134        C201   1.483       .  S
O135       Ni154   1.917       .  S
O135        C141   1.268       .  A
O136       Ni154   1.913       .  S
O136        C138   1.268       .  A
Ni137       O140   1.926       .  S
Ni137       O142   1.908       .  S
C138        O148   1.269       .  A
C138        C328   1.489       .  S
O139       Ni155   1.922       .  S
O139        C145   1.279       .  A
O140        C145   1.277       .  A
C141        C168   1.491       .  S
O142        C144   1.269       .  A
O143       Ni154   1.924       .  S
C144        O150   1.274       .  A
C144        C341   1.490       .  S
C145        C221   1.491       .  S
H146        O147   0.966   1_545  S
O147       Ni155   1.919   1_565  S
O147       Ni149   1.897       .  S
O147       Ni154   1.907       .  S
O148       Ni149   1.917       .  S
Ni149       O153   1.903       .  S
Ni149       O151   1.926       .  S
O150       Ni155   1.929       .  S
C152        O153   1.267   1_545  A
C152        C181   1.486       .  S
C157        C158   1.410       .  A
C157        C162   1.400       .  A
C157        F175   1.358       .  S
C158        C163   1.490       .  S
C158        C159   1.407   1_565  A
C159        C160   1.400       .  A
C159        F164   1.358       .  S
C160        C161   1.408   1_545  A
C160        F176   1.358       .  S
C161        C162   1.405       .  A
C162        F165   1.358       .  S
C163        C166   1.404       .  A
C163        C170   1.410   1_565  A
C166        C167   1.396       .  A
C166        F171   1.358       .  S
C167        C168   1.413       .  A
C167        F173   1.358       .  S
C168        C169   1.410   1_565  A
C169        C170   1.404       .  A
C169        F172   1.358       .  S
C170        F174   1.358       .  S
C177        C178   1.407       .  A
C177        C182   1.400       .  A
C177        F195   1.358       .  S
C178        C183   1.486       .  S
C178        C179   1.406   1_565  A
C179        C180   1.398       .  A
C179        F184   1.358       .  S
C180        C181   1.410       .  A
C180        F196   1.358       .  S
C181        C182   1.410   1_545  A
C182        F185   1.358       .  S
C183        C186   1.406       .  A
C183        C190   1.408   1_565  A
C186        C187   1.398       .  A
C186        F191   1.358       .  S
C187        C188   1.408       .  A
C187        F193   1.358       .  S
C188        C189   1.407   1_565  A
C189        C190   1.400       .  A
C189        F192   1.357       .  S
C190        F194   1.358       .  S
C197        C198   1.407       .  A
C197        C202   1.397       .  A
C197        F215   1.358       .  S
C198        C203   1.487       .  S
C198        C199   1.407       .  A
C199        C200   1.403       .  A
C199        F204   1.358       .  S
C200        C201   1.410       .  A
C200        F216   1.358       .  S
C201        C202   1.407       .  A
C202        F205   1.358       .  S
C203        C206   1.408       .  A
C203        C210   1.406       .  A
C206        C207   1.403       .  A
C206        F211   1.358       .  S
C207        C208   1.408       .  A
C207        F213   1.358       .  S
C208        C209   1.407       .  A
C209        C210   1.398       .  A
C209        F212   1.358       .  S
C210        F214   1.358       .  S
C217        C218   1.408       .  A
C217        C222   1.401       .  A
C217        F235   1.358       .  S
C218        C223   1.489       .  S
C218        C219   1.405       .  A
C219        C220   1.399       .  A
C219        F224   1.358       .  S
C220        C221   1.413       .  A
C220        F236   1.358       .  S
C221        C222   1.410       .  A
C222        F225   1.358       .  S
C223        C226   1.407       .  A
C223        C230   1.408       .  A
C226        C227   1.401       .  A
C226        F231   1.358       .  S
C227        C228   1.409       .  A
C227        F233   1.358       .  S
C228        C229   1.407       .  A
C229        C230   1.399       .  A
C229        F232   1.358       .  S
C230        F234   1.358       .  S
C237        C238   1.410       .  A
C237        C242   1.403       .  A
C237        F255   1.358       .  S
C238        C243   1.489       .  S
C238        C239   1.405   1_655  A
C239        C240   1.396       .  A
C239        F244   1.358       .  S
C240        C241   1.410   1_455  A
C240        F256   1.358       .  S
C241        C242   1.408       .  A
C242        F245   1.357       .  S
C243        C246   1.406       .  A
C243        C250   1.409   1_655  A
C246        C247   1.399       .  A
C246        F251   1.358       .  S
C247        C248   1.410       .  A
C247        F253   1.358       .  S
C248        C249   1.406   1_655  A
C249        C250   1.399       .  A
C249        F252   1.358       .  S
C250        F254   1.358       .  S
C257        C258   1.408       .  A
C257        C262   1.400       .  A
C257        F275   1.358       .  S
C258        C263   1.486       .  S
C258        C259   1.406   1_655  A
C259        C260   1.397       .  A
C259        F264   1.358       .  S
C260        C261   1.408       .  A
C260        F276   1.358       .  S
C261        C262   1.408   1_455  A
C262        F265   1.357       .  S
C263        C266   1.405       .  A
C263        C270   1.407   1_655  A
C266        C267   1.398       .  A
C266        F271   1.358       .  S
C267        C268   1.414       .  A
C267        F273   1.358       .  S
C268        C269   1.409   1_655  A
C269        C270   1.399       .  A
C269        F272   1.358       .  S
C270        F274   1.358       .  S
C277        C278   1.404       .  A
C277        C282   1.399       .  A
C277        F295   1.358       .  S
C278        C283   1.485       .  S
C278        C279   1.407   1_554  A
C279        C280   1.402       .  A
C279        F284   1.358       .  S
C280        C281   1.409   1_556  A
C280        F296   1.358       .  S
C281        C282   1.410       .  A
C282        F285   1.358       .  S
C283        C286   1.405   1_554  A
C283        C290   1.406       .  A
C286        C287   1.402       .  A
C286        F291   1.358       .  S
C287        C288   1.411       .  A
C287        F293   1.358       .  S
C288        C289   1.408   1_556  A
C289        C290   1.399       .  A
C289        F292   1.358       .  S
C290        F294   1.358       .  S
C297        C298   1.404   1_556  A
C297        C302   1.398       .  A
C297        F315   1.358       .  S
C298        C303   1.476       .  S
C298        C299   1.403       .  A
C299        C300   1.397       .  A
C299        F304   1.358       .  S
C300        C301   1.410       .  A
C300        F316   1.358       .  S
C301        C302   1.407   1_554  A
C302        F305   1.357       .  S
C303        C306   1.404   1_554  A
C303        C310   1.404       .  A
C306        C307   1.399       .  A
C306        F311   1.358       .  S
C307        C308   1.408       .  A
C307        F313   1.358       .  S
C308        C309   1.407   1_556  A
C309        C310   1.396       .  A
C309        F312   1.358       .  S
C310        F314   1.358       .  S
C317        C318   1.408       .  A
C317        C322   1.405       .  A
C317        F335   1.358       .  S
C318        C323   1.490       .  S
C318        C319   1.406       .  A
C319        C320   1.395       .  A
C319        F324   1.358       .  S
C320        C321   1.411       .  A
C320        F336   1.358       .  S
C321        C322   1.412       .  A
C322        F325   1.357       .  S
C323        C326   1.407       .  A
C323        C330   1.407       .  A
C326        C327   1.398       .  A
C326        F331   1.358       .  S
C327        C328   1.411       .  A
C327        F333   1.358       .  S
C328        C329   1.411       .  A
C329        C330   1.401       .  A
C329        F332   1.358       .  S
C330        F334   1.358       .  S
C337        C338   1.406       .  A
C337        C342   1.399       .  A
C337        F355   1.358       .  S
C338        C343   1.486       .  S
C338        C339   1.404       .  A
C339        C340   1.401       .  A
C339        F344   1.358       .  S
C340        C341   1.414       .  A
C340        F356   1.358       .  S
C341        C342   1.410       .  A
C342        F345   1.358       .  S
C343        C346   1.402       .  A
C343        C350   1.407       .  A
C346        C347   1.393       .  A
C346        F351   1.359       .  S
C347        C348   1.415       .  A
C347        F353   1.358       .  S
C348        C349   1.413       .  A
C349        C350   1.407       .  A
C349        F352   1.357       .  S
C350        F354   1.358       .  S
C357        C358   1.407       .  A
C357        C362   1.402       .  A
C357        F375   1.358       .  S
C358        C363   1.488       .  S
C358        C359   1.407       .  A
C359        C360   1.400       .  A
C359        F364   1.358       .  S
C360        C361   1.408       .  A
C360        F376   1.358       .  S
C361        C362   1.408       .  A
C362        F365   1.358       .  S
C363        C366   1.407       .  A
C363        C370   1.402       .  A
C366        C367   1.407       .  A
C366        F371   1.357       .  S
C367        C368   1.413       .  A
C367        F373   1.357       .  S
C368        C369   1.416       .  A
C369        C370   1.395       .  A
C369        F372   1.358       .  S
C370        F374   1.359       .  S
C377        C378   1.408       .  A
C377        C382   1.404       .  A
C377        F395   1.358       .  S
C378        C383   1.489       .  S
C378        C379   1.407       .  A
C379        C380   1.398       .  A
C379        F384   1.358       .  S
C380        C381   1.408       .  A
C380        F396   1.358       .  S
C381        C382   1.409       .  A
C382        F385   1.358       .  S
C383        C386   1.407       .  A
C383        C390   1.404       .  A
C386        C387   1.408       .  A
C386        F391   1.358       .  S
C387        C388   1.414       .  A
C387        F393   1.358       .  S
C388        C389   1.414       .  A
C389        C390   1.393       .  A
C389        F392   1.358       .  S
C390        F394   1.358       .  S
C397        C398   1.406       .  A
C397        C402   1.400       .  A
C397        F415   1.358       .  S
C398        C403   1.490       .  S
C398        C399   1.410       .  A
C399        C400   1.400       .  A
C399        F404   1.358       .  S
C400        C401   1.407       .  A
C400        F416   1.358       .  S
C401        C402   1.410       .  A
C402        F405   1.358       .  S
C403        C406   1.411       .  A
C403        C410   1.405       .  A
C406        C407   1.404       .  A
C406        F411   1.358       .  S
C407        C408   1.407       .  A
C407        F413   1.357       .  S
C408        C409   1.410       .  A
C409        C410   1.396       .  A
C409        F412   1.358       .  S
C410        F414   1.358       .  S
C417        C418   1.408       .  A
C417        C422   1.401       .  A
C417        F435   1.358       .  S
C418        C423   1.484       .  S
C418        C419   1.403       .  A
C419        C420   1.398       .  A
C419        F424   1.358       .  S
C420        C421   1.410       .  A
C420        F436   1.358       .  S
C421        C422   1.406       .  A
C422        F425   1.358       .  S
C423        C426   1.402       .  A
C423        C430   1.407       .  A
C426        C427   1.397       .  A
C426        F431   1.358       .  S
C427        C428   1.412       .  A
C427        F433   1.358       .  S
C428        C429   1.410       .  A
C429        C430   1.403       .  A
C429        F432   1.357       .  S
C430        F434   1.358       .  S
C437        C438   1.408       .  A
C437        C442   1.404       .  A
C437        F455   1.358   1_554  S
C438        C443   1.490       .  S
C438        C439   1.406       .  A
C439        C440   1.401       .  A
C439        F444   1.358       .  S
C440        C441   1.409       .  A
C440        F456   1.358       .  S
C441        C442   1.408       .  A
C442        F445   1.358   1_554  S
C443        C446   1.406       .  A
C443        C450   1.405   1_554  A
C446        C447   1.405       .  A
C446        F451   1.358       .  S
C447        C448   1.413   1_554  A
C447        F453   1.357       .  S
C448        C449   1.413       .  A
C449        C450   1.401       .  A
C449        F452   1.358       .  S
C450        F454   1.358       .  S
C457        C458   1.407       .  A
C457        C462   1.409       .  A
C457        F475   1.357       .  S
C458        C463   1.487       .  S
C458        C459   1.402   1_556  A
C459        C460   1.398       .  A
C459        F464   1.358       .  S
C460        C461   1.412   1_554  A
C460        F476   1.358       .  S
C461        C462   1.410       .  A
C462        F465   1.357       .  S
C463        C466   1.402       .  A
C463        C470   1.404   1_556  A
C466        C467   1.403       .  A
C466        F471   1.358       .  S
C467        C468   1.417       .  A
C467        F473   1.358       .  S
C468        C469   1.415   1_556  A
C469        C470   1.404       .  A
C469        F472   1.358       .  S
C470        F474   1.358       .  S
C477        C478   1.404   1_556  A
C477        C482   1.398       .  A
C477        F495   1.358       .  S
C478        C483   1.483       .  S
C478        C479   1.405       .  A
C479        C480   1.405       .  A
C479        F484   1.357       .  S
C480        C481   1.410       .  A
C480        F496   1.358       .  S
C481        C482   1.410   1_554  A
C482        F485   1.358       .  S
C483        C486   1.402   1_554  A
C483        C490   1.406       .  A
C486        C487   1.395       .  A
C486        F491   1.358       .  S
C487        C488   1.411       .  A
C487        F493   1.358       .  S
C488        C489   1.411   1_556  A
C489        C490   1.409       .  A
C489        F492   1.357       .  S
C490        F494   1.357       .  S
C497        C498   1.408   1_554  A
C497        C502   1.398       .  A
C497        F515   1.358       .  S
C498        C503   1.489       .  S
C498        C499   1.410       .  A
C499        C500   1.401       .  A
C499        F504   1.358       .  S
C500        C501   1.407       .  A
C500        F516   1.358       .  S
C501        C502   1.404   1_556  A
C502        F505   1.358       .  S
C503        C506   1.407   1_556  A
C503        C510   1.407       .  A
C506        C507   1.394       .  A
C506        F511   1.358       .  S
C507        C508   1.411       .  A
C507        F513   1.358       .  S
C508        C509   1.414   1_554  A
C509        C510   1.404       .  A
C509        F512   1.358       .  S
C510        F514   1.358       .  S
