geometry optimzed in LAMMPS
_audit_creation_date              2020-11-30 
_audit_creation_method            'lammps2cif' 
_symmetry_space_group_name_H-M    'P1' 
_symmetry_Int_Tables_number       1 
_symmetry_cell_setting            triclinic 
loop_ 
_symmetry_equiv_pos_as_xyz 
  x,y,z 
_cell_length_a                    40.68706131 
_cell_length_b                    36.87040505400769 
_cell_length_c                    27.47249512156863 
_cell_angle_alpha                 90.37179455446483 
_cell_angle_beta                  90.41417893185827 
_cell_angle_gamma                 123.9753254875978 
loop_ 
_atom_site_label 
_atom_site_type_symbol 
_atom_site_fract_x 
_atom_site_fract_y 
_atom_site_fract_z 
_atom_site_charge 
C1          C  0.34415960  0.19253500  0.09023943     0.32400
C2          C  0.34868636  0.19815781  0.49212198     0.32400
C3          C  0.30447713  0.17032489  0.06252840    -0.03800
C4          C  0.36756471  0.23863769  0.06926486    -0.04600
C5          C  0.36398315  0.17195759  0.06679980    -0.04500
C6          C  0.30790867  0.17982811  0.51433337    -0.03800
C7          C  0.37459302  0.24253608  0.51848809    -0.04600
C8          C  0.36183158  0.17069882  0.51663158    -0.04500
C9          C  0.26996926  0.16008495  0.49687092    -0.29900
N10         N  0.24507815  0.14695313  0.53515630     0.16600
C11         C  0.26487512  0.14847303  0.07358345    -0.29900
H12         H  0.25283038  0.14163695  0.10985023     0.18600
C13         C  0.40096324  0.28563328  0.50626775    -0.28900
N14         N  0.40200752  0.30838072  0.04885290     0.15300
C15         C  0.38714214  0.28073249  0.08702475    -0.28800
C16         C  0.37799780  0.14763517  0.50346401    -0.29100
N17         N  0.38504979  0.13265600  0.54489184     0.15900
H18         H  0.38443410  0.14263667  0.46686455     0.18500
C19         C  0.38101703  0.15118067  0.08331506    -0.29100
H20         H  0.38364710  0.14445273  0.12093519     0.18500
H21         H  0.39027450  0.29069716  0.12473142     0.18500
H22         H  0.26082425  0.15389473  0.45895065     0.18600
H23         H  0.40934329  0.29838455  0.46982616     0.18500
C24         C  0.34484138  0.19521481  0.34027361     0.32400
C25         C  0.34444316  0.19086616  0.24122877     0.32400
C26         C  0.30333991  0.16927848  0.31546233    -0.03800
C27         C  0.36577713  0.23935219  0.31410454    -0.04600
C28         C  0.36488220  0.17400724  0.31806078    -0.04500
C29         C  0.30389055  0.16723789  0.26478668    -0.03800
C30         C  0.36489963  0.23665747  0.26344730    -0.04600
C31         C  0.36479494  0.17177579  0.26741737    -0.04500
C32         C  0.26567270  0.14368366  0.24789055    -0.29900
N33         N  0.24118304  0.13134653  0.28632774     0.16600
C34         C  0.26364017  0.14671483  0.32808408    -0.29900
H35         H  0.25210128  0.14125195  0.36458722     0.18600
C36         C  0.38259720  0.27810690  0.24591317    -0.28900
N37         N  0.39530862  0.30624707  0.28419968     0.15300
C38         C  0.38533209  0.28316353  0.32625096    -0.28800
C39         C  0.38353055  0.15139879  0.25487271    -0.29100
N40         N  0.39494582  0.14139990  0.29664254     0.15900
H41         H  0.38774854  0.14384693  0.21829808     0.18500
C42         C  0.38366270  0.15510543  0.33517501    -0.29100
H43         H  0.38832275  0.15098930  0.37303145     0.18500
H44         H  0.39115199  0.29707267  0.36261980     0.18500
H45         H  0.25620191  0.13589918  0.21013950     0.18600
H46         H  0.38635076  0.28735664  0.20813910     0.18500
C47         C  0.13263764  0.06915806  0.05413079     0.78800
Tb48       Tb  0.45792651  0.01381086  0.04252589     1.80700
O49         O  0.10921058  0.04381006  0.08619245    -0.49200
O50         O  0.07300552  0.46270661  0.06712358    -0.56700
C51         C  0.04790817  0.09618297  0.05418943     0.94600
O52         O  0.44520140  0.06635964  0.06427831    -0.56200
Tb53       Tb  0.05058977  0.01184264  0.03933089     1.78100
O54         O  0.39714770  0.45267916  0.02420160    -0.56700
O55         O  0.50140914  0.45340865  0.00061876    -0.75500
O56         O  0.05598851  0.07212161  0.07613007    -0.74800
O57         O  0.03619338  0.02222980  0.45680336    -0.60100
C58         C  0.46995844  0.42954872  0.02438262     0.94200
O59         O  0.48478858  0.02257042  0.11977731    -0.72000
C60         C  0.37669607  0.95696337  0.05752835     0.77700
C61         C  0.08462145  0.45779222  0.02657555     0.78600
O62         O  0.12207831  0.05721229  0.51527443    -0.57300
O63         O  0.08293513  0.47990042  0.99310741    -0.49200
O64         O  0.48585576  0.02556699  0.46347730    -0.75300
O65         O  0.01882592  0.99437375  0.11359534    -0.59300
C66         C  0.99622392  0.00308107  0.13446887     0.92400
C67         C  0.00594558  0.01817404  0.43746763     0.93700
C68         C  0.43792913  0.07619948  0.52420140     0.78000
O69         O  0.40092173  0.98069751  0.09091786    -0.48600
O70         O  0.46054243  0.56544811  0.48887516    -0.49800
O71         O  0.45650642  0.44584756  0.05205141    -0.62600
O72         O  0.01892840  0.08027234  0.02445430    -0.63700
C73         C  0.12973934  0.07022906  0.30307711     0.78800
Tb74       Tb  0.45947931  0.01565811  0.29290214     1.80700
O75         O  0.10330061  0.06515242  0.33167782    -0.49200
O76         O  0.07524883  0.46370478  0.31348690    -0.56700
C77         C  0.04760491  0.09467887  0.27378987     0.94600
O78         O  0.44196096  0.06389752  0.31574908    -0.56200
Tb79       Tb  0.04868031  0.00884339  0.28569395     1.78100
O80         O  0.39537203  0.45846878  0.26217570    -0.56700
O81         O  0.50400403  0.45069135  0.32180965    -0.75500
O82         O  0.05549941  0.07047558  0.25133305    -0.74800
O83         O  0.02547715  0.00466488  0.20758650    -0.60100
C84         C  0.47140996  0.42763228  0.29895750     0.94200
O85         O  0.48817413  0.03027434  0.36893531    -0.72000
C86         C  0.37756614  0.95981080  0.30587603     0.77700
C87         C  0.08192140  0.45463879  0.27201547     0.78600
O88         O  0.11573979  0.04624275  0.26537056    -0.57300
O89         O  0.07631169  0.47356386  0.23826841    -0.49200
O90         O  0.47736226  0.00871296  0.21460742    -0.75300
O91         O  0.02556641  0.00845578  0.36272618    -0.59300
C92         C  0.00505217  0.01911054  0.38537170     0.92400
C93         C  0.99667795  0.00341131  0.18727897     0.93700
C94         C  0.43941053  0.07561839  0.27371330     0.78000
O95         O  0.40125941  0.98577781  0.33833502    -0.48600
O96         O  0.45026539  0.55099876  0.23519194    -0.49800
O97         O  0.46138593  0.44459412  0.26713928    -0.62600
O98         O  0.01812557  0.07887049  0.30182993    -0.63700
C99         C  0.17017408  0.33315703  0.99478317     0.32400
C100        C  0.16975705  0.32882129  0.09359417     0.32400
C101        C  0.15536635  0.35799826  0.02128516    -0.03800
C102        C  0.14425493  0.28737386  0.01581922    -0.04600
C103        C  0.21022908  0.35064255  0.01925113    -0.04500
C104        C  0.15510221  0.35555257  0.07181962    -0.03800
C105        C  0.14410903  0.28488623  0.06639843    -0.04600
C106        C  0.21057589  0.34903395  0.06992886    -0.04500
C107        C  0.13738522  0.37550679  0.08916914    -0.29900
N108        N  0.12698491  0.39021144  0.05082066     0.16600
C109        C  0.13775270  0.37957567  0.00897648    -0.29900
H110        H  0.13214163  0.38558595  0.97236875     0.18600
C111        C  0.11885724  0.24144476  0.07795290    -0.28900
N112        N  0.10370554  0.21807366  0.03568085     0.15300
C113        C  0.11876806  0.24584733  0.99772308    -0.28800
C114        C  0.24939798  0.36636745  0.08403735    -0.29100
N115        N  0.27175202  0.37762723  0.04310899     0.15900
H116        H  0.26036646  0.37011821  0.12093274     0.18500
C117        C  0.24795594  0.36778286  0.00363304    -0.29100
H118        H  0.25764886  0.37340825  0.96620685     0.18500
H119        H  0.11161321  0.23634229  0.95986387     0.18500
H120        H  0.13150852  0.37819152  0.12691300     0.18600
H121        H  0.11145343  0.22805078  0.11420962     0.18500
C122        C  0.16655471  0.32768091  0.24467046     0.32400
C123        C  0.17130377  0.33120485  0.34373379     0.32400
C124        C  0.15264656  0.35425824  0.26953930    -0.03800
C125        C  0.14235867  0.28356697  0.27021758    -0.04600
C126        C  0.20780544  0.34752424  0.26664167    -0.04500
C127        C  0.15518617  0.35586601  0.32020244    -0.03800
C128        C  0.14451045  0.28549520  0.32092305    -0.04600
C129        C  0.21087803  0.34957453  0.31727847    -0.04500
C130        C  0.13913893  0.37789590  0.33648282    -0.31500
N131        N  0.12688300  0.38989535  0.29743837     0.16600
C132        C  0.13498303  0.37565250  0.25616108    -0.29900
H133        H  0.12785550  0.37951284  0.21939631     0.18600
C134        C  0.11987255  0.24356827  0.33737819    -0.28900
N135        N  0.10359967  0.21632445  0.29819073     0.15300
C136        C  0.11704859  0.24030298  0.25687855    -0.28800
C137        C  0.25057275  0.36839954  0.32847702    -0.29100
N138        N  0.27077060  0.37739216  0.28587364     0.15900
H139        H  0.26362865  0.37572540  0.36461323     0.18500
C140        C  0.24473787  0.36467389  0.24830127    -0.29100
H141        H  0.25236439  0.36837848  0.21017522     0.18500
H142        H  0.10830619  0.22739041  0.22013419     0.18500
H143        H  0.13583462  0.38404163  0.37413792     0.18600
H144        H  0.11418318  0.23347709  0.37498655     0.18500
C145        C  0.16995864  0.33216481  0.44151128    -0.10900
C146        C  0.17186457  0.33227571  0.39752513    -0.12500
C147        C  0.16572051  0.32618338  0.19101379    -0.10900
C148        C  0.16802359  0.32661076  0.14713793    -0.12500
C149        C  0.07424297  0.14230698  0.26818988    -0.14100
C150        C  0.07565898  0.16996140  0.30140970    -0.29200
H151        H  0.09478868  0.15486573  0.23807760     0.15000
H152        H  0.05737813  0.15714175  0.33362612     0.15500
C153        C  0.31275275  0.40034247  0.27809283    -0.14100
C154        C  0.33968043  0.41248474  0.31391728    -0.29200
H155        H  0.32308264  0.40995223  0.24101430     0.15000
H156        H  0.32318144  0.93280344  0.34829131     0.15500
C157        C  0.10834943  0.41346891  0.30214394    -0.14100
C158        C  0.09683851  0.42669218  0.26406676    -0.29200
H159        H  0.10476322  0.42210890  0.33873188     0.15000
H160        H  0.10053283  0.41939979  0.22700226     0.15500
C161        C  0.07577713  0.17177453  0.03018176    -0.14100
C162        C  0.07381846  0.14364728  0.06254012    -0.29200
H163        H  0.05809265  0.15939697  0.99685120     0.15000
H164        H  0.09370705  0.15569199  0.09393684     0.15500
C165        C  0.33951323  0.42317748  0.07468845    -0.14100
C166        C  0.31376497  0.39830153  0.03906948    -0.29200
H167        H  0.32905471  0.42582811  0.10990419     0.15000
H168        H  0.32511922  0.39787271  0.00349319     0.15500
C169        C  0.10747479  0.41269064  0.05627556    -0.14100
C170        C  0.10023591  0.43054128  0.01879038    -0.29200
H171        H  0.10004278  0.41702540  0.09283762     0.15000
H172        H  0.10813612  0.42766674  0.98205043     0.15500
C173        C  0.41342770  0.11781306  0.30216189    -0.14100
C174        C  0.42525103  0.10420225  0.26466416    -0.29200
H175        H  0.41674397  0.10951295  0.33897415     0.15000
H176        H  0.42265136  0.11194161  0.22741425     0.15500
C177        C  0.41611086  0.35268111  0.27880928    -0.14100
C178        C  0.44601643  0.38048556  0.30881777    -0.29200
H179        H  0.41028638  0.36501374  0.24631692     0.15000
H180        H  0.45379945  0.36792886  0.33927738     0.15500
C181        C  0.17285615  0.10010768  0.31303811    -0.14100
C182        C  0.19878253  0.10362783  0.28022331    -0.29200
H183        H  0.18315254  0.11861928  0.34699636     0.15000
H184        H  0.18739207  0.08576485  0.24587146     0.15500
C185        C  0.42190192  0.10279067  0.51515311    -0.14100
C186        C  0.40193325  0.10760298  0.55032301    -0.29200
H187        H  0.41303413  0.10185044  0.97551668     0.15000
H188        H  0.39915093  0.09294761  0.58559504     0.15500
C189        C  0.42300595  0.35504638  0.05334117    -0.14100
C190        C  0.44866152  0.38180839  0.01952765    -0.29200
H191        H  0.41889104  0.36876141  0.08606327     0.15000
H192        H  0.42363676  0.37055732  0.48969696     0.15500
C193        C  0.17594670  0.09620537  0.06184269    -0.14100
C194        C  0.20126836  0.11485683  0.02474581    -0.29200
H195        H  0.18687293  0.09800263  0.09846054     0.15000
H196        H  0.19135464  0.10775826  0.49247945     0.15500
C197        C  0.34872372  0.19872812  0.43823973    -0.10900
C198        C  0.34641780  0.19759803  0.39414035    -0.12500
C199        C  0.34266072  0.19021125  0.14372554    -0.10900
C200        C  0.34355693  0.18938179  0.18763926    -0.12500
C201        C  0.34569915  0.19577601  0.59113682     0.32400
C202        C  0.34921414  0.19692132  0.99153488     0.32400
C203        C  0.30611984  0.17856213  0.56499650    -0.03800
C204        C  0.37323079  0.24101177  0.56920409    -0.04600
C205        C  0.35974700  0.16951828  0.56722389    -0.04500
C206        C  0.30719286  0.17277896  0.01201967    -0.03800
C207        C  0.37028415  0.24093946  0.01874089    -0.04600
C208        C  0.36666196  0.17378675  0.01625229    -0.04500
C209        C  0.26933565  0.15258984  0.99348225    -0.29900
N210        N  0.24364219  0.13777915  0.03110520     0.16600
C211        C  0.26676217  0.15796409  0.57719052    -0.29900
H212        H  0.25481055  0.14959797  0.61350533     0.18600
C213        C  0.39181018  0.28446490  0.00686942    -0.28900
N214        N  0.41558487  0.30969820  0.54820935     0.15300
C215        C  0.39915705  0.28271711  0.58667261    -0.28800
C216        C  0.38536261  0.15340867  0.00311152    -0.29100
N217        N  0.39387386  0.13977835  0.04453891     0.15900
H218        H  0.39226222  0.14909212  0.96648504     0.18500
C219        C  0.37365842  0.14561469  0.58369147    -0.29100
H220        H  0.37641602  0.13909299  0.62135853     0.18500
H221        H  0.40545016  0.29292236  0.62444440     0.18500
H222        H  0.26100488  0.14903404  0.95540496     0.18600
H223        H  0.39861582  0.29759867  0.97047882     0.18500
C224        C  0.35032872  0.19997042  0.84054256     0.32400
C225        C  0.34980992  0.19588222  0.74174272     0.32400
C226        C  0.30917418  0.17689835  0.81585951    -0.03800
C227        C  0.37392019  0.24443591  0.81476137    -0.04600
C228        C  0.36747167  0.17574652  0.81839410    -0.04500
C229        C  0.30943127  0.17528976  0.76529595    -0.03800
C230        C  0.37322335  0.24184593  0.76411525    -0.04600
C231        C  0.36747583  0.17359725  0.76774834    -0.04500
C232        C  0.27127905  0.15569621  0.74877685    -0.29900
N233        N  0.24735165  0.14459235  0.78766341     0.16600
C234        C  0.27003915  0.15727058  0.82910631    -0.29900
H235        H  0.25917179  0.15341216  0.86577743     0.18600
C236        C  0.39265459  0.28355052  0.74669276    -0.28900
N237        N  0.40577866  0.31182744  0.78496817     0.15300
C238        C  0.39458645  0.28843995  0.82697426    -0.28800
C239        C  0.38296948  0.14960902  0.75556833    -0.29100
N240        N  0.39194854  0.13724059  0.79759044     0.15900
H241        H  0.38609382  0.14062686  0.71917380     0.18500
C242        C  0.38237201  0.15289543  0.83586666    -0.29100
H243        H  0.38537422  0.14728453  0.87377569     0.18500
H244        H  0.39954749  0.30214241  0.86334732     0.18500
H245        H  0.26149928  0.14989404  0.71108671     0.18600
H246        H  0.39622878  0.29277085  0.70887871     0.18500
C247        C  0.13427642  0.07782094  0.55512878     0.78800
Tb248      Tb  0.46111308  0.01863098  0.54084478     1.80700
O249        O  0.10672115  0.06733660  0.58478393    -0.49200
O250        O  0.07314058  0.46361583  0.56275887    -0.56700
C251        C  0.05125681  0.09958636  0.52701646     0.94600
O252        O  0.43797384  0.06149464  0.56537379    -0.56200
Tb253      Tb  0.05499620  0.01375488  0.53265217     1.78100
O254        O  0.39808413  0.47398302  0.51812956    -0.56700
O255        O  0.49839456  0.44858605  0.55731491    -0.75500
O256        O  0.06164489  0.07721937  0.50563031    -0.74800
O257        O  0.03897603  0.02965804  0.96137976    -0.60100
C258        C  0.46916221  0.43120415  0.52783992     0.94200
O259        O  0.47988772  0.01467855  0.61969110    -0.72000
C260        C  0.38037458  0.95554061  0.55657534     0.77700
C261        C  0.08777213  0.46150480  0.52324269     0.78600
O262        O  0.11527738  0.06755376  0.01507481    -0.57300
O263        O  0.08904461  0.48625584  0.49086786    -0.49200
O264        O  0.47603950  0.00350406  0.96698954    -0.75300
O265        O  0.02434977  0.99483099  0.60905644    -0.59300
C266        C  0.01058296  0.01313425  0.63265254     0.92400
C267        C  0.00763094  0.01735098  0.93681593     0.93700
C268        C  0.43468573  0.07060834  0.02244682     0.78000
O269        O  0.40627697  0.96969023  0.58999599    -0.48600
O270        O  0.45873243  0.55992337  0.98730834    -0.49800
O271        O  0.46050698  0.45427898  0.50447933    -0.62600
O272        O  0.02154466  0.08236885  0.55492824    -0.63700
C273        C  0.13676962  0.07336053  0.80797120     0.78800
Tb274      Tb  0.45784579  0.01186949  0.79448305     1.80700
O275        O  0.11177813  0.04745124  0.83830553    -0.49200
O276        O  0.09137228  0.48111345  0.81359064    -0.56700
C277        C  0.05171612  0.09843989  0.77665961     0.94600
O278        O  0.42762397  0.04851672  0.81487912    -0.56200
Tb279      Tb  0.05601870  0.01456594  0.78547792     1.78100
O280        O  0.39664579  0.46548897  0.76539555    -0.56700
O281        O  0.50530590  0.45933640  0.82839065    -0.75500
O282        O  0.06238941  0.07678367  0.75406085    -0.74800
O283        O  0.02371790  0.99388592  0.70893807    -0.60100
C284        C  0.47354827  0.43490897  0.80431301     0.94200
O285        O  0.47864419  0.01031738  0.87286523    -0.72000
C286        C  0.37670623  0.94824829  0.80668408     0.77700
C287        C  0.08081929  0.45628207  0.77689711     0.78600
O288        O  0.12149159  0.07140231  0.76715881    -0.57300
O289        O  0.05984909  0.46103956  0.74717680    -0.49200
O290        O  0.47914100  0.01408191  0.71562322    -0.75300
O291        O  0.04078769  0.02945051  0.86254305    -0.59300
C292        C  0.00885803  0.01873554  0.88369924     0.92400
C293        C  0.00831924  0.01063742  0.68559587     0.93700
C294        C  0.43665111  0.07130632  0.77717715     0.78000
O295        O  0.40161151  0.96234111  0.84117798    -0.48600
O296        O  0.44338890  0.55037006  0.73683340    -0.49800
O297        O  0.46236516  0.45096084  0.77262062    -0.62600
O298        O  0.02151396  0.07955500  0.80381925    -0.63700
C299        C  0.16992187  0.33261717  0.49530613     0.32400
C300        C  0.17273892  0.33437216  0.59445060     0.32400
C301        C  0.15439733  0.35757229  0.52029207    -0.03800
C302        C  0.14618457  0.28791572  0.51995281    -0.04600
C303        C  0.21096210  0.35356699  0.51850858    -0.04500
C304        C  0.15588000  0.35812577  0.57098417    -0.03800
C305        C  0.14756771  0.28920376  0.57066955    -0.04600
C306        C  0.21304783  0.35476066  0.56927800    -0.04500
C307        C  0.13885486  0.37898587  0.58745294    -0.29900
N308        N  0.12725609  0.39162083  0.54843655     0.16600
C309        C  0.13650521  0.37868482  0.50703091    -0.29900
H310        H  0.12984105  0.38309090  0.47023821     0.18600
C311        C  0.12158753  0.24760586  0.58682080    -0.28900
N312        N  0.10493337  0.22086859  0.54749786     0.15300
C313        C  0.11962985  0.24490392  0.50629050    -0.28800
C314        C  0.25288454  0.37683320  0.58171242    -0.29100
N315        N  0.27408932  0.38857419  0.53972431     0.15900
H316        H  0.26538666  0.38507897  0.61815841     0.18500
C317        C  0.24863932  0.37454927  0.50133564    -0.29100
H318        H  0.25714993  0.38033576  0.46346869     0.18500
H319        H  0.11041605  0.23233353  0.46950656     0.18500
H320        H  0.13473254  0.38421494  0.62512509     0.18600
H321        H  0.11471302  0.23748693  0.62433354     0.18500
C322        C  0.16682139  0.33129124  0.74513959     0.32400
C323        C  0.17115218  0.33421459  0.84400506     0.32400
C324        C  0.15279500  0.35771085  0.77016897    -0.03800
C325        C  0.14204721  0.28682938  0.77030290    -0.04600
C326        C  0.20798227  0.35091488  0.76743789    -0.04500
C327        C  0.15541674  0.35915086  0.82081488    -0.03800
C328        C  0.14400610  0.28862165  0.82105487    -0.04600
C329        C  0.21067640  0.35272540  0.81796062    -0.04500
C330        C  0.14125742  0.38281247  0.83755089    -0.31500
N331        N  0.12943847  0.39543745  0.79879022     0.16600
C332        C  0.13627985  0.38039897  0.75719994    -0.29900
H333        H  0.13013823  0.38584124  0.72057058     0.18600
C334        C  0.11796251  0.24697983  0.83755545    -0.28900
N335        N  0.10114448  0.21977145  0.79848471     0.15300
C336        C  0.11546895  0.24364692  0.75710230    -0.28800
C337        C  0.25045686  0.37396200  0.82991082    -0.29100
N338        N  0.27130556  0.38443124  0.78773854     0.15900
H339        H  0.26307159  0.38213384  0.86629051     0.18500
C340        C  0.24547873  0.37041176  0.74969333    -0.29100
H341        H  0.25362427  0.37527882  0.71170279     0.18500
H342        H  0.10662623  0.23068526  0.72039855     0.18500
H343        H  0.13934299  0.39011907  0.87525763     0.18600
H344        H  0.11188812  0.23698114  0.87507454     0.18500
C345        C  0.17108675  0.33512065  0.94135639    -0.10900
C346        C  0.17223758  0.33548748  0.89748757    -0.12500
C347        C  0.16718443  0.33135137  0.69159612    -0.10900
C348        C  0.17132845  0.33365528  0.64798140    -0.12500
C349        C  0.07563241  0.14622532  0.77092328    -0.14100
C350        C  0.07378946  0.17322636  0.80187161    -0.29200
H351        H  0.09750732  0.15989143  0.74225235     0.15000
H352        H  0.05435228  0.15998327  0.83306208     0.15500
C353        C  0.31351233  0.40895139  0.78097897    -0.14100
C354        C  0.34014140  0.42488014  0.81771444    -0.29200
H355        H  0.32417915  0.41613855  0.74379525     0.15000
H356        H  0.32247246  0.90702296  0.84955892     0.15500
C357        C  0.11457960  0.42249721  0.80383605    -0.14100
C358        C  0.09321070  0.42610359  0.76920393    -0.29200
H359        H  0.12045434  0.44007350  0.83818735     0.15000
H360        H  0.08550754  0.40770353  0.73527177     0.15500
C361        C  0.07597314  0.17483874  0.55083686    -0.14100
C362        C  0.07571628  0.14693407  0.51943452    -0.29200
H363        H  0.05730220  0.16249409  0.58276694     0.15000
H364        H  0.09685720  0.15942039  0.48993071     0.15500
C365        C  0.34298840  0.42463654  0.56855290    -0.14100
C366        C  0.31626066  0.41507179  0.53320219    -0.29200
H367        H  0.33375703  0.41161782  0.60487408     0.15000
H368        H  0.32680166  0.42771087  0.49691181     0.15500
C369        C  0.10793738  0.41427922  0.55303497    -0.14100
C370        C  0.10342693  0.43435512  0.51566666    -0.29200
H371        H  0.09876648  0.41725197  0.58910293     0.15000
H372        H  0.11378007  0.43347119  0.47969852     0.15500
C373        C  0.40569035  0.10900777  0.80345756    -0.14100
C374        C  0.42423909  0.10155186  0.76844160    -0.29200
H375        H  0.40153251  0.09388763  0.83874252     0.15000
H376        H  0.43038690  0.11763595  0.73356294     0.15500
C377        C  0.42560787  0.35830878  0.77921551    -0.14100
C378        C  0.45040061  0.38734228  0.81308754    -0.29200
H379        H  0.42258684  0.37016220  0.74444036     0.15000
H380        H  0.45606507  0.37596343  0.84644798     0.15500
C381        C  0.17970502  0.10107778  0.81840724    -0.14100
C382        C  0.20520801  0.12314914  0.78244152    -0.29200
H383        H  0.19033182  0.10022499  0.85444320     0.15000
H384        H  0.19353263  0.12185897  0.74626136     0.15500
C385        C  0.41997771  0.09848719  0.01272156    -0.14100
C386        C  0.41250232  0.11643473  0.04998512    -0.29200
H387        H  0.42548460  0.11711979  0.47960687     0.15000
H388        H  0.41876422  0.11115931  0.08686234     0.15500
C389        C  0.44345570  0.35610908  0.55286112    -0.14100
C390        C  0.44411001  0.38352226  0.52053731    -0.29200
H391        H  0.46161102  0.36911716  0.58577836     0.15000
H392        H  0.45529660  0.36850344  0.98866024     0.15500
C393        C  0.17690442  0.10976443  0.56524836    -0.14100
C394        C  0.20275941  0.12046141  0.52896042    -0.29200
H395        H  0.18690036  0.12291313  0.60181009     0.15000
H396        H  0.18944846  0.11109101  0.98807038     0.15500
C397        C  0.35108767  0.19964843  0.93806603    -0.10900
C398        C  0.35088040  0.20108699  0.89414076    -0.12500
C399        C  0.34572885  0.19450203  0.64455910    -0.10900
C400        C  0.34814900  0.19427442  0.68831248    -0.12500
C401        C  0.35311182  0.69403819  0.08631762     0.32400
C402        C  0.35910780  0.70113549  0.48774962     0.32400
C403        C  0.31308731  0.66969225  0.05933239    -0.03800
C404        C  0.37357868  0.74006115  0.06582420    -0.04600
C405        C  0.37505282  0.67645315  0.06163047    -0.04500
C406        C  0.31802919  0.68191806  0.50942990    -0.03800
C407        C  0.38416564  0.74595225  0.51374848    -0.04600
C408        C  0.37311210  0.67469672  0.51287609    -0.04500
C409        C  0.28019980  0.66342980  0.49165747    -0.29900
N410        N  0.25521458  0.65075820  0.52980559     0.16600
C411        C  0.27374867  0.64834635  0.07135734    -0.29900
H412        H  0.26231868  0.64204193  0.10791220     0.18600
C413        C  0.40867319  0.78951551  0.50158766    -0.28900
N414        N  0.39978557  0.80889547  0.04624813     0.15300
C415        C  0.38808429  0.78112991  0.08414631    -0.28800
C416        C  0.38911448  0.65137701  0.50010973    -0.29100
N417        N  0.39637215  0.63687345  0.54176462     0.15900
H418        H  0.39484948  0.64542159  0.46356116     0.18500
C419        C  0.39126792  0.65455256  0.07694422    -0.29100
H420        H  0.39273420  0.64602594  0.11418388     0.18500
H421        H  0.38955744  0.79017839  0.12202033     0.18500
H422        H  0.27126994  0.65848357  0.45369337     0.18600
H423        H  0.41621293  0.80265140  0.46521729     0.18500
C424        C  0.35492366  0.69521291  0.33642454     0.32400
C425        C  0.35467691  0.69097420  0.23738716     0.32400
C426        C  0.31398757  0.67356896  0.31150072    -0.03800
C427        C  0.37939043  0.73919565  0.31050251    -0.04600
C428        C  0.37083715  0.66960531  0.31444080    -0.04500
C429        C  0.31437811  0.67181562  0.26082027    -0.03800
C430        C  0.37944585  0.73673316  0.25989632    -0.04600
C431        C  0.37074526  0.66736328  0.26373502    -0.04500
C432        C  0.27619990  0.65139715  0.24423911    -0.29900
N433        N  0.25216843  0.64027797  0.28304526     0.16600
C434        C  0.27481457  0.65360371  0.32458396    -0.29900
H435        H  0.26381491  0.64855383  0.36131051     0.18600
C436        C  0.40312286  0.77846271  0.24294256    -0.28900
N437        N  0.41650912  0.80626649  0.28163113     0.15300
C438        C  0.40235019  0.78286727  0.32324818    -0.28800
C439        C  0.38648181  0.64387934  0.25131087    -0.29100
N440        N  0.39592377  0.63181631  0.29313867     0.15900
H441        H  0.39038545  0.63607443  0.21470572     0.18500
C442        C  0.38639244  0.64731978  0.33168537    -0.29100
H443        H  0.39048927  0.64261788  0.36954618     0.18500
H444        H  0.40857386  0.79657597  0.35975073     0.18500
H445        H  0.26638601  0.64428903  0.20656501     0.18600
H446        H  0.40974961  0.78810424  0.20530707     0.18500
C447        C  0.14181106  0.57365891  0.05500567     0.78800
Tb448      Tb  0.46213858  0.51213314  0.04216761     1.80700
O449        O  0.11879282  0.54952925  0.08810384    -0.49200
O450        O  0.07274755  0.96768390  0.06113757    -0.56700
C451        C  0.05581804  0.59830414  0.05184065     0.94600
O452        O  0.43622256  0.55362043  0.05757396    -0.56200
Tb453      Tb  0.06016347  0.51451066  0.04100768     1.78100
O454        O  0.39291174  0.96049351  0.01720750    -0.56700
O455        O  0.49822981  0.95479187  0.00667069    -0.75500
O456        O  0.06558274  0.57603372  0.07475550    -0.74800
O457        O  0.05102001  0.53964204  0.46399865    -0.60100
C458        C  0.46523611  0.93059235  0.02715833     0.94200
O459        O  0.49457745  0.52499367  0.11548950    -0.72000
C460        C  0.38212892  0.45219001  0.06437307     0.77700
C461        C  0.07191955  0.95314519  0.01920483     0.78600
O462        O  0.12716235  0.57394266  0.51309103    -0.57300
O463        O  0.05891496  0.96640275  0.98684453    -0.49200
O464        O  0.48685049  0.51801332  0.45903621    -0.75300
O465        O  0.02486498  0.49110563  0.11416397    -0.59300
C466        C  0.00862933  0.50720736  0.13705371     0.92400
C467        C  0.01833538  0.52227310  0.44071814     0.93700
C468        C  0.44476996  0.57547401  0.52073088     0.78000
O469        O  0.40696593  0.48073834  0.09403777    -0.48600
O470        O  0.45139834  0.06426256  0.49138661    -0.49800
O471        O  0.45039090  0.94636631  0.05325952    -0.62600
O472        O  0.02490871  0.58015910  0.02513255    -0.63700
C473        C  0.14175483  0.57454566  0.30600324     0.78800
Tb474      Tb  0.46213233  0.50722811  0.28527201     1.80700
O475        O  0.11649209  0.55965332  0.33922213    -0.49200
O476        O  0.05029695  0.95466651  0.32835522    -0.56700
C477        C  0.05399045  0.59677186  0.27675259     0.94600
O478        O  0.43816198  0.54927178  0.30962730    -0.56200
Tb479      Tb  0.06047414  0.51399938  0.28857087     1.78100
O480        O  0.39458851  0.96024791  0.26734297    -0.56700
O481        O  0.49012105  0.94376736  0.27065218    -0.75500
O482        O  0.06387633  0.57410030  0.25462198    -0.74800
O483        O  0.02820011  0.49478411  0.21236986    -0.60100
C484        C  0.46000573  0.92672105  0.29756386     0.94200
O485        O  0.48464318  0.51372646  0.36405136    -0.72000
C486        C  0.38229542  0.44272085  0.30361817     0.77700
C487        C  0.06714197  0.94680099  0.29568415     0.78600
O488        O  0.12654977  0.56065245  0.26433010    -0.57300
O489        O  0.07352691  0.96853872  0.25744447    -0.49200
O490        O  0.48603686  0.51126475  0.20800561    -0.75300
O491        O  0.04949908  0.53234968  0.36568044    -0.59300
C492        C  0.01820675  0.52210520  0.38794546     0.92400
C493        C  0.00817477  0.50648513  0.18999755     0.93700
C494        C  0.43795869  0.56398546  0.26854886     0.78000
O495        O  0.40912294  0.45750361  0.33582906    -0.48600
O496        O  0.44842570  0.05888293  0.24057128    -0.49800
O497        O  0.44960653  0.94948568  0.31840378    -0.62600
O498        O  0.02510108  0.57923322  0.30595221    -0.63700
C499        C  0.16322722  0.83364874  0.98261393     0.32400
C500        C  0.16422421  0.83050185  0.08147475     0.32400
C501        C  0.14573533  0.85592525  0.00911190    -0.03800
C502        C  0.14023442  0.78784993  0.00441137    -0.04600
C503        C  0.20407664  0.85485759  0.00661171    -0.04500
C504        C  0.14636922  0.85413300  0.05977208    -0.03800
C505        C  0.14082541  0.78627562  0.05498795    -0.04600
C506        C  0.20490631  0.85354096  0.05721753    -0.04500
C507        C  0.12924618  0.87456516  0.07744060    -0.29900
N508        N  0.11797335  0.88866394  0.03939855     0.16600
C509        C  0.12793907  0.87754196  0.99723326    -0.29900
H510        H  0.12291260  0.88466403  0.96086812     0.18600
C511        C  0.11890982  0.74300426  0.06773577    -0.28900
N512        N  0.10513665  0.71846764  0.02616032     0.15300
C513        C  0.11771565  0.74546715  0.98739744    -0.28800
C514        C  0.24404145  0.87357035  0.07119099    -0.29100
N515        N  0.26648256  0.88663826  0.03026282     0.15900
H516        H  0.25505695  0.87768569  0.10811784     0.18500
C517        C  0.24224724  0.87511571  0.99083782    -0.29100
H518        H  0.25183005  0.88121914  0.95337744     0.18500
H519        H  0.11104691  0.73487674  0.94977169     0.18500
H520        H  0.12525523  0.87902055  0.11527243     0.18600
H521        H  0.11291228  0.73040029  0.10437432     0.18500
C522        C  0.16253194  0.82828649  0.23250317     0.32400
C523        C  0.16490991  0.83586468  0.33133206     0.32400
C524        C  0.14473043  0.85200436  0.25369079    -0.03800
C525        C  0.14036884  0.78496023  0.26006629    -0.04600
C526        C  0.20377110  0.85291583  0.25595664    -0.04500
C527        C  0.14571835  0.85594298  0.30424078    -0.03800
C528        C  0.14147699  0.78907193  0.31066853    -0.04600
C529        C  0.20532351  0.85690883  0.30645761    -0.04500
C530        C  0.12704627  0.87659505  0.31565001    -0.31500
N531        N  0.11510217  0.88514470  0.27326007     0.16600
C532        C  0.12582477  0.87026018  0.23552488    -0.29900
H533        H  0.12012303  0.87257322  0.19763998     0.18600
C534        C  0.11692233  0.74786430  0.32903865    -0.28900
N535        N  0.10179402  0.71877692  0.29143817     0.15300
C536        C  0.11568298  0.74098002  0.24896746    -0.28800
C537        C  0.24484122  0.87970209  0.31995436    -0.29100
N538        N  0.26683469  0.88936637  0.27887563     0.15900
H539        H  0.25637241  0.88814487  0.35681336     0.18500
C540        C  0.24187978  0.87310977  0.23980772    -0.29100
H541        H  0.25090310  0.87578489  0.20230840     0.18500
H542        H  0.10739008  0.72640150  0.21287603     0.18500
H543        H  0.12317817  0.88533105  0.35180910     0.18600
H544        H  0.11007191  0.73951390  0.36683131     0.18500
C545        C  0.16609180  0.83824129  0.42903697    -0.10900
C546        C  0.16586238  0.83874446  0.38499317    -0.12500
C547        C  0.16226690  0.82612185  0.17891225    -0.10900
C548        C  0.16370138  0.82794369  0.13499819    -0.12500
C549        C  0.07720422  0.64425792  0.26808332    -0.14100
C550        C  0.07536452  0.67231026  0.29732365    -0.29200
H551        H  0.09836223  0.65685376  0.23862325     0.15000
H552        H  0.05645855  0.66014905  0.32905324     0.15500
C553        C  0.30923866  0.91253785  0.27469990    -0.14100
C554        C  0.33429497  0.93311452  0.31244524    -0.29200
H555        H  0.32133309  0.91475672  0.23882749     0.15000
H556        H  0.33055811  0.40298345  0.35123532     0.15500
C557        C  0.09747912  0.90938663  0.26662687    -0.14100
C558        C  0.07998816  0.91696988  0.30269465    -0.29200
H559        H  0.09912104  0.92259532  0.23076244     0.15000
H560        H  0.07663240  0.90282236  0.33831446     0.15500
C561        C  0.08014952  0.67169824  0.02253946    -0.14100
C562        C  0.08113654  0.64618363  0.05627702    -0.29200
H563        H  0.06144099  0.65692899  0.99027795     0.15000
H564        H  0.10210346  0.66070897  0.08654376     0.15500
C565        C  0.33357532  0.92935002  0.06460169    -0.14100
C566        C  0.30876422  0.90929724  0.02654153    -0.29200
H567        H  0.32231973  0.92807111  0.10065309     0.15000
H568        H  0.32099921  0.91253509  0.99052862     0.15500
C569        C  0.10012835  0.91280708  0.04597842    -0.14100
C570        C  0.08641112  0.92499614  0.00923373    -0.29200
H571        H  0.09833229  0.92211240  0.08301354     0.15000
H572        H  0.08713012  0.91583585  0.97187773     0.15500
C573        C  0.41194276  0.60574832  0.29834750    -0.14100
C574        C  0.42393159  0.59269740  0.26056573    -0.29200
H575        H  0.41405340  0.59602241  0.33491652     0.15000
H576        H  0.42295097  0.60236798  0.22368512     0.15500
C577        C  0.44161087  0.85277328  0.27742565    -0.14100
C578        C  0.43622003  0.87917103  0.30486608    -0.29200
H579        H  0.46295052  0.86625308  0.24812497     0.15000
H580        H  0.41289698  0.86535518  0.33175163     0.15500
C581        C  0.18481340  0.60363737  0.31497044    -0.14100
C582        C  0.20979262  0.61587243  0.27760096    -0.29200
H583        H  0.19574744  0.61307141  0.35212011     0.15000
H584        H  0.19755396  0.60577588  0.24089852     0.15500
C585        C  0.43077706  0.60407213  0.51191067    -0.14100
C586        C  0.41192329  0.61048261  0.54728986    -0.29200
H587        H  0.43310688  0.61398917  0.96902583     0.15000
H588        H  0.40870590  0.59576072  0.58263502     0.15500
C589        C  0.41692844  0.85485387  0.05127820    -0.14100
C590        C  0.44434898  0.88322456  0.02017915    -0.29200
H591        H  0.40990362  0.86676808  0.08319256     0.15000
H592        H  0.42146418  0.87281691  0.49074665     0.15500
C593        C  0.18509252  0.60150777  0.06205466    -0.14100
C594        C  0.20966276  0.61587147  0.02400397    -0.29200
H595        H  0.19652466  0.60685868  0.09900423     0.15000
H596        H  0.20073584  0.62422037  0.48759714     0.15500
C597        C  0.35913321  0.70076358  0.43405493    -0.10900
C598        C  0.35655870  0.69819659  0.39008684    -0.12500
C599        C  0.35228836  0.69113527  0.13984993    -0.10900
C600        C  0.35366918  0.68976547  0.18372862    -0.12500
C601        C  0.35580839  0.69928727  0.58661968     0.32400
C602        C  0.35682177  0.69920194  0.98746425     0.32400
C603        C  0.31613650  0.68086289  0.56000156    -0.03800
C604        C  0.38262448  0.74449965  0.56447319    -0.04600
C605        C  0.37106359  0.67394431  0.56344027    -0.04500
C606        C  0.31509492  0.67247675  0.00879475    -0.03800
C607        C  0.37572810  0.74289449  0.01521021    -0.04600
C608        C  0.37699849  0.67847138  0.01102181    -0.04500
C609        C  0.27705457  0.65275739  0.99118593    -0.29900
N610        N  0.25198306  0.63811774  0.02941687     0.16600
C611        C  0.27691199  0.66141129  0.57190060    -0.29900
H612        H  0.26529715  0.65516199  0.60837397     0.18600
C613        C  0.39223366  0.78598660  0.00391225    -0.28900
N614        N  0.42211271  0.81362128  0.54364732     0.15300
C615        C  0.40672364  0.78641309  0.58200805    -0.28800
C616        C  0.39445870  0.65685521  0.99669293    -0.29100
N617        N  0.40295485  0.64250266  0.03752222     0.15900
H618        H  0.39876082  0.65030166  0.95970266     0.18500
C619        C  0.38523743  0.65038492  0.58035569    -0.29100
H620        H  0.38773457  0.64386523  0.61811385     0.18500
H621        H  0.41197943  0.79664785  0.61983009     0.18500
H622        H  0.26826142  0.65029251  0.95338868     0.18600
H623        H  0.39709436  0.79937968  0.96771679     0.18500
C624        C  0.35636208  0.70212770  0.83627289     0.32400
C625        C  0.35750718  0.69938768  0.73738444     0.32400
C626        C  0.31554099  0.67770603  0.81051922    -0.03800
C627        C  0.37861998  0.74676791  0.81117971    -0.04600
C628        C  0.37565730  0.68012175  0.81430995    -0.04500
C629        C  0.31664172  0.67640125  0.75992370    -0.03800
C630        C  0.37875906  0.74498818  0.76049124    -0.04600
C631        C  0.37632680  0.67864848  0.76368922    -0.04500
C632        C  0.27855079  0.65348205  0.74248835    -0.29900
N633        N  0.25395508  0.64111264  0.78080762     0.16600
C634        C  0.27605272  0.65557898  0.82275874    -0.29900
H635        H  0.26443317  0.64982299  0.85921735     0.18600
C636        C  0.39670405  0.78680279  0.74387826    -0.28900
N637        N  0.40820671  0.81419456  0.78280409     0.15300
C638        C  0.39735426  0.79025995  0.82429909    -0.28800
C639        C  0.39373081  0.65685251  0.75133698    -0.29100
N640        N  0.40355046  0.64520849  0.79320387     0.15900
H641        H  0.39852056  0.64990930  0.71476450     0.18500
C642        C  0.39266712  0.65937780  0.83165119    -0.29100
H643        H  0.39631890  0.65426777  0.86950536     0.18500
H644        H  0.40128771  0.80324920  0.86089615     0.18500
H645        H  0.26925944  0.64616532  0.70464945     0.18600
H646        H  0.40052852  0.79666876  0.70624719     0.18500
C647        C  0.14462521  0.57776401  0.55293114     0.78800
Tb648      Tb  0.46585023  0.51606263  0.53754985     1.80700
O649        O  0.12155935  0.55278782  0.58550376    -0.49200
O650        O  0.06514458  0.95960390  0.55694307    -0.56700
C651        C  0.05739990  0.60038683  0.54875689     0.94600
O652        O  0.44091579  0.55734720  0.56084786    -0.56200
Tb653      Tb  0.06310857  0.51777976  0.53813230     1.78100
O654        O  0.39477271  0.97171843  0.51574870    -0.56700
O655        O  0.49137395  0.95204986  0.56319311    -0.75500
O656        O  0.06706920  0.57827113  0.57210072    -0.74800
O657        O  0.04834558  0.53654887  0.96656188    -0.60100
C658        C  0.46407924  0.93382753  0.53111036     0.94200
O659        O  0.48658570  0.51475350  0.61565317    -0.72000
C660        C  0.38561864  0.45441717  0.55794679     0.77700
C661        C  0.08005620  0.95797715  0.51756255     0.78600
O662        O  0.12419946  0.56985106  0.01529755    -0.57300
O663        O  0.08186889  0.98329655  0.48570831    -0.49200
O664        O  0.48048081  0.50827917  0.96300264    -0.75300
O665        O  0.02985818  0.49661966  0.61293394    -0.59300
C666        C  0.01132745  0.51015061  0.63560875     0.92400
C667        C  0.01593139  0.52067476  0.94292900     0.93700
C668        C  0.44233883  0.57142699  0.01673361     0.78000
O669        O  0.41318029  0.46413143  0.58771887    -0.48600
O670        O  0.43668797  0.04747809  0.99011736    -0.49800
O671        O  0.45399970  0.95583120  0.50828385    -0.62600
O672        O  0.02664953  0.58203685  0.52182987    -0.63700
C673        C  0.14401560  0.58049922  0.80318079     0.78800
Tb674      Tb  0.46354906  0.51471505  0.78810438     1.80700
O675        O  0.11929093  0.57123282  0.83615639    -0.49200
O676        O  0.07437118  0.96654828  0.80492593    -0.56700
C677        C  0.05344771  0.59755165  0.77468937     0.94600
O678        O  0.45051825  0.56686721  0.81131864    -0.56200
Tb679      Tb  0.06264646  0.51846616  0.79052699     1.78100
O680        O  0.39226089  0.96447255  0.76631824    -0.56700
O681        O  0.50545524  0.96172995  0.82895976    -0.75500
O682        O  0.06426147  0.57581557  0.75281983    -0.74800
O683        O  0.03815776  0.50876440  0.71079458    -0.60100
C684        C  0.47402018  0.93663635  0.80458810     0.94200
O685        O  0.48066682  0.51128269  0.86723887    -0.72000
C686        C  0.38289207  0.45420248  0.80761480     0.77700
C687        C  0.07865912  0.95736244  0.76228648     0.78600
O688        O  0.12825353  0.56023900  0.76382751    -0.57300
O689        O  0.07018490  0.97528938  0.73035759    -0.49200
O690        O  0.48510728  0.51437336  0.71048892    -0.75300
O691        O  0.04827420  0.53267745  0.86828895    -0.59300
C692        C  0.01655829  0.52193710  0.88999470     0.92400
C693        C  0.01097845  0.50948632  0.68862435     0.93700
C694        C  0.44080281  0.57252294  0.76985440     0.78000
O695        O  0.40929284  0.47190928  0.84036991    -0.48600
O696        O  0.45680128  0.06511708  0.74776910    -0.49800
O697        O  0.46137859  0.95210792  0.77425211    -0.62600
O698        O  0.02662878  0.57961579  0.80649007    -0.63700
C699        C  0.16642949  0.83599396  0.48267261     0.32400
C700        C  0.16723396  0.83179803  0.58164159     0.32400
C701        C  0.14976526  0.85852874  0.50992048    -0.03800
C702        C  0.14268013  0.78999045  0.50391025    -0.04600
C703        C  0.20725297  0.85600892  0.50668547    -0.04500
C704        C  0.15012612  0.85621221  0.56044163    -0.03800
C705        C  0.14325998  0.78787168  0.55452556    -0.04600
C706        C  0.20804027  0.85421060  0.55739700    -0.04500
C707        C  0.13093554  0.87428506  0.57834474    -0.29900
N708        N  0.11924428  0.88784966  0.54026880     0.16600
C709        C  0.13036721  0.87813590  0.49813035    -0.29900
H710        H  0.12387381  0.88351138  0.46167559     0.18600
C711        C  0.12033593  0.74453932  0.56671701    -0.28900
N712        N  0.10589614  0.72051924  0.52486954     0.15300
C713        C  0.11897980  0.74786867  0.48645297    -0.28800
C714        C  0.24719809  0.87341961  0.57127037    -0.29100
N715        N  0.26964060  0.88639742  0.53029698     0.15900
H716        H  0.25828112  0.87774636  0.60819498     0.18500
C717        C  0.24537577  0.87565841  0.49096227    -0.29100
H718        H  0.25495820  0.88221845  0.45351551     0.18500
H719        H  0.11187671  0.73763329  0.44883309     0.18500
H720        H  0.12530936  0.87685161  0.61621452     0.18600
H721        H  0.11410139  0.73152500  0.60317339     0.18500
C722        C  0.16252194  0.82866310  0.73274474     0.32400
C723        C  0.16562327  0.83263723  0.83176920     0.32400
C724        C  0.14942243  0.85659497  0.75642411    -0.03800
C725        C  0.13652805  0.78461271  0.75858224    -0.04600
C726        C  0.20335692  0.84734902  0.75615221    -0.04500
C727        C  0.15146553  0.85844202  0.80709745    -0.03800
C728        C  0.13803329  0.78714393  0.80931383    -0.04600
C729        C  0.20511383  0.84936965  0.80680540    -0.04500
C730        C  0.13580351  0.88076449  0.82289490    -0.31500
N731        N  0.12379537  0.89260920  0.78364288     0.16600
C732        C  0.13181952  0.87805392  0.74253524    -0.29900
H733        H  0.12421871  0.88131924  0.70579642     0.18600
C734        C  0.11278019  0.74581844  0.82661062    -0.28900
N735        N  0.09659527  0.71791164  0.78812339     0.15300
C736        C  0.11070196  0.74102683  0.74619843    -0.28800
C737        C  0.24438462  0.86996005  0.82030197    -0.29100
N738        N  0.26622562  0.88035181  0.77908468     0.15900
H739        H  0.25609239  0.87850768  0.85709070     0.18500
C740        C  0.24137098  0.86669020  0.73992843    -0.29100
H741        H  0.25055815  0.87208507  0.70231704     0.18500
H742        H  0.10278622  0.72721004  0.70974372     0.18500
H743        H  0.13206806  0.88670628  0.86046345     0.18600
H744        H  0.10730086  0.73640146  0.86436157     0.18500
C745        C  0.16394574  0.83481214  0.92911627    -0.10900
C746        C  0.16580915  0.83447244  0.88529491    -0.12500
C747        C  0.16274467  0.82757504  0.67906889    -0.10900
C748        C  0.16569296  0.82906706  0.63521864    -0.12500
C749        C  0.07379227  0.64429770  0.76397933    -0.14100
C750        C  0.07086234  0.67144540  0.79328155    -0.29200
H751        H  0.09431901  0.65736275  0.73385469     0.15000
H752        H  0.05261093  0.65873543  0.82553674     0.15500
C753        C  0.30867742  0.90582988  0.77483621    -0.14100
C754        C  0.33359985  0.91780834  0.81311668    -0.29200
H755        H  0.32092572  0.91670767  0.73871283     0.15000
H756        H  0.33071327  0.41834649  0.85527764     0.15500
C757        C  0.10477891  0.91549064  0.78889889    -0.14100
C758        C  0.09391542  0.93011646  0.75164679    -0.29200
H759        H  0.10033347  0.92254447  0.82586691     0.15000
H760        H  0.09812874  0.92428725  0.71417000     0.15500
C761        C  0.08041865  0.67385663  0.52086145    -0.14100
C762        C  0.08265613  0.64819044  0.55311746    -0.29200
H763        H  0.06059036  0.65942294  0.48946513     0.15000
H764        H  0.10470082  0.66266328  0.58226609     0.15500
C765        C  0.33735924  0.92487365  0.56434421    -0.14100
C766        C  0.31208302  0.91034921  0.52610113    -0.29200
H767        H  0.32661246  0.91653645  0.60128508     0.15000
H768        H  0.32419360  0.91914362  0.48965302     0.15500
C769        C  0.09886892  0.90920016  0.54585467    -0.14100
C770        C  0.09555137  0.93094077  0.50942960    -0.29200
H771        H  0.08846030  0.91027899  0.58184443     0.15000
H772        H  0.10710028  0.93180990  0.47370808     0.15500
C773        C  0.42131122  0.62088590  0.79859079    -0.14100
C774        C  0.42643521  0.60086475  0.76120459    -0.29200
H775        H  0.42914978  0.61699225  0.83521018     0.15000
H776        H  0.41815999  0.60325049  0.72435896     0.15500
C777        C  0.42648030  0.86043286  0.77853085    -0.14100
C778        C  0.45275957  0.88906975  0.81155836    -0.29200
H779        H  0.42110230  0.87243759  0.74541383     0.15000
H780        H  0.46057356  0.87738997  0.84286153     0.15500
C781        C  0.18707165  0.61024200  0.81045665    -0.14100
C782        C  0.21164809  0.61480721  0.77518233    -0.29200
H783        H  0.19847225  0.62703031  0.84524317     0.15000
H784        H  0.19935174  0.59828237  0.74031458     0.15500
C785        C  0.43082471  0.60225070  0.00577503    -0.14100
C786        C  0.41724271  0.61473352  0.04233101    -0.29200
H787        H  0.43522507  0.61892831  0.47651954     0.15000
H788        H  0.41658135  0.60290060  0.07872644     0.15500
C789        C  0.44731955  0.86025972  0.54904148    -0.14100
C790        C  0.44298243  0.88664795  0.52050986    -0.29200
H791        H  0.46675431  0.87378000  0.58086410     0.15000
H792        H  0.45382226  0.87139172  0.99076373     0.15500
C793        C  0.18779566  0.60687198  0.56092329    -0.14100
C794        C  0.21281514  0.62757038  0.52403812    -0.29200
H795        H  0.19905490  0.60837128  0.59727230     0.15000
H796        H  0.19716292  0.60889750  0.98733507     0.15500
C797        C  0.35749755  0.70193109  0.93390817    -0.10900
C798        C  0.35649176  0.70294138  0.88994671    -0.12500
C799        C  0.35539650  0.69841247  0.64007612    -0.10900
C800        C  0.35697505  0.69830754  0.68392147    -0.12500
C801        C  0.84542035  0.19292729  0.08876059     0.32400
C802        C  0.85053317  0.19792657  0.48984977     0.32400
C803        C  0.80570305  0.17006076  0.06143057    -0.03800
C804        C  0.86765545  0.23882340  0.06777223    -0.04600
C805        C  0.86596020  0.17315876  0.06519116    -0.04500
C806        C  0.80936566  0.17502077  0.51256879    -0.03800
C807        C  0.87297159  0.24267856  0.51599163    -0.04600
C808        C  0.86807339  0.17451316  0.51389916    -0.04500
C809        C  0.77104628  0.15325974  0.49560916    -0.29900
N810        N  0.74643673  0.13905938  0.53425531     0.16600
C811        C  0.76648480  0.14949888  0.07319844    -0.29900
H812        H  0.75496777  0.14351494  0.10969747     0.18600
C813        C  0.89264797  0.28604323  0.50333273    -0.28900
N814        N  0.89919488  0.30825080  0.04766837     0.15300
C815        C  0.88505601  0.28053165  0.08569739    -0.28800
C816        C  0.88391332  0.15109535  0.50012839    -0.29100
N817        N  0.89201879  0.13670821  0.54128991     0.15900
H818        H  0.88819511  0.14425793  0.46324741     0.18500
C819        C  0.88449388  0.15375012  0.08119215    -0.29100
H820        H  0.88800574  0.14744539  0.11866673     0.18500
H821        H  0.88724710  0.29017639  0.12339497     0.18500
H822        H  0.76159312  0.14738977  0.45779572     0.18600
H823        H  0.89785598  0.29872834  0.46675893     0.18500
C824        C  0.84583196  0.19713975  0.33829306     0.32400
C825        C  0.84587629  0.19373336  0.23932959     0.32400
C826        C  0.80453469  0.17135260  0.31321941    -0.03800
C827        C  0.86687506  0.24155411  0.31269592    -0.04600
C828        C  0.86595362  0.17626125  0.31583270    -0.04500
C829        C  0.80525262  0.16983392  0.26254371    -0.03800
C830        C  0.86634326  0.23937881  0.26197880    -0.04600
C831        C  0.86605910  0.17453547  0.26523687    -0.04500
C832        C  0.76710689  0.14615393  0.24544619    -0.29900
N833        N  0.74259909  0.13330669  0.28388847     0.16600
C834        C  0.76491481  0.14831124  0.32573285    -0.29900
H835        H  0.75335571  0.14244042  0.36223562     0.18600
C836        C  0.88546181  0.28114796  0.24502359    -0.28900
N837        N  0.89837388  0.30890264  0.28371525     0.15300
C838        C  0.88732235  0.28529466  0.32544547    -0.28800
C839        C  0.88424294  0.15380326  0.25225872    -0.29100
N840        N  0.89505605  0.14295287  0.29381894     0.15900
H841        H  0.88841624  0.14653587  0.21553445     0.18500
C842        C  0.88406474  0.15660516  0.33263917    -0.29100
H843        H  0.88817655  0.15162134  0.37039003     0.18500
H844        H  0.89317816  0.29882351  0.36200183     0.18500
H845        H  0.75770608  0.13872932  0.20764030     0.18600
H846        H  0.89019642  0.29089407  0.20738835     0.18500
C847        C  0.63506833  0.07473580  0.05687696     0.78800
Tb848      Tb  0.95712306  0.01344023  0.03165965     1.80700
O849        O  0.61195300  0.05406532  0.09138546    -0.49200
O850        O  0.57143803  0.46293073  0.05805235    -0.56700
C851        C  0.54870778  0.09850281  0.05851250     0.94600
O852        O  0.95250511  0.07217284  0.05370845    -0.56200
Tb853      Tb  0.55348090  0.01530963  0.04420787     1.78100
O854        O  0.89940411  0.45861855  0.01519057    -0.56700
O855        O  0.00379213  0.45230573  0.00682309    -0.75500
O856        O  0.55733987  0.07500104  0.08087649    -0.74800
O857        O  0.53156363  0.00929101  0.46319441    -0.60100
C858        C  0.97094717  0.42933370  0.02807093     0.94200
O859        O  0.97595319  0.01450369  0.11230948    -0.72000
C860        C  0.87779613  0.95500529  0.05717893     0.77700
C861        C  0.58299349  0.45831061  0.01738891     0.78600
O862        O  0.62050990  0.05266179  0.51812045    -0.57300
O863        O  0.58144157  0.48096107  0.98435724    -0.49200
O864        O  0.97648916  0.01235046  0.46064034    -0.75300
O865        O  0.51611883  0.98839405  0.11493211    -0.59300
C866        C  0.49991002  0.00379482  0.13904854     0.92400
C867        C  0.50888963  0.01792421  0.44192471     0.93700
C868        C  0.93524481  0.06935839  0.51988239     0.78000
O869        O  0.90614036  0.96483304  0.08578915    -0.48600
O870        O  0.94273085  0.54648406  0.48664510    -0.49800
O871        O  0.95768771  0.44657871  0.05447718    -0.62600
O872        O  0.51791619  0.08172838  0.03176755    -0.63700
C873        C  0.63184535  0.07043630  0.30384205     0.78800
Tb874      Tb  0.95533200  0.01403976  0.28948910     1.80700
O875        O  0.60588757  0.06639143  0.33260237    -0.49200
O876        O  0.58792969  0.47218586  0.30933663    -0.56700
C877        C  0.55045953  0.09398830  0.27503988     0.94600
O878        O  0.93875332  0.06290982  0.31178273    -0.56200
Tb879      Tb  0.55115898  0.00744361  0.29000815     1.78100
O880        O  0.89961321  0.45889537  0.26336805    -0.56700
O881        O  0.00500211  0.45382105  0.32468175    -0.75500
O882        O  0.55888974  0.06937676  0.25472939    -0.74800
O883        O  0.52708096  0.99856134  0.21122115    -0.60100
C884        C  0.97225440  0.43048242  0.30225624     0.94200
O885        O  0.98363086  0.02977455  0.36548457    -0.72000
C886        C  0.87477023  0.95610598  0.30972459     0.77700
C887        C  0.58049169  0.45057629  0.27046496     0.78600
O888        O  0.61750214  0.04481114  0.26742743    -0.57300
O889        O  0.56195414  0.45785996  0.23954381    -0.49200
O890        O  0.97015113  0.00484184  0.20982401    -0.75300
O891        O  0.52786252  0.00594238  0.36732372    -0.59300
C892        C  0.50854192  0.01837657  0.38949928     0.92400
C893        C  0.50096990  0.00266646  0.19154638     0.93700
C894        C  0.93408212  0.07253590  0.26960873     0.78000
O895        O  0.89929117  0.98547940  0.33890736    -0.48600
O896        O  0.94763462  0.55175867  0.24064051    -0.49800
O897        O  0.96096518  0.44739950  0.27204919    -0.62600
O898        O  0.52269176  0.07919799  0.30554180    -0.63700
C899        C  0.66878928  0.33324876  0.98629921     0.32400
C900        C  0.67035506  0.33154884  0.08530449     0.32400
C901        C  0.65175213  0.35612666  0.01238890    -0.03800
C902        C  0.64566836  0.28785127  0.00879728    -0.04600
C903        C  0.70975079  0.35443735  0.00992298    -0.04500
C904        C  0.65249087  0.35500879  0.06305569    -0.03800
C905        C  0.64647930  0.28690585  0.05943460    -0.04600
C906        C  0.71107681  0.35398793  0.06060485    -0.04500
C907        C  0.63411543  0.37438766  0.08009427    -0.29900
N908        N  0.62259197  0.38773245  0.04148035     0.16600
C909        C  0.63305508  0.37652978  0.99978990    -0.29900
H910        H  0.62700711  0.38195795  0.96313437     0.18600
C911        C  0.62182898  0.24395478  0.07276370    -0.28900
N912        N  0.60621368  0.21912264  0.03153282     0.15300
C913        C  0.62038584  0.24560219  0.99234205    -0.28800
C914        C  0.75052368  0.37382555  0.07375803    -0.29100
N915        N  0.77244319  0.38577278  0.03230531     0.15900
H916        H  0.76208416  0.37865751  0.11049027     0.18500
C917        C  0.74762111  0.37381043  0.99343551    -0.29100
H918        H  0.75660069  0.37897009  0.95574578     0.18500
H919        H  0.61214026  0.23490954  0.95482684     0.18500
H920        H  0.62930817  0.37840315  0.11788795     0.18600
H921        H  0.61451011  0.23196486  0.10959916     0.18500
C922        C  0.66842508  0.32783650  0.23673560     0.32400
C923        C  0.67249262  0.32959422  0.33583785     0.32400
C924        C  0.65322738  0.35281687  0.26252389    -0.03800
C925        C  0.64470098  0.28299641  0.26142098    -0.04600
C926        C  0.70989947  0.34861573  0.25916212    -0.04500
C927        C  0.65559232  0.35355025  0.31316335    -0.03800
C928        C  0.64684332  0.28443045  0.31217147    -0.04600
C929        C  0.71225937  0.34961797  0.30985214    -0.04500
C930        C  0.63999026  0.37560270  0.33044440    -0.31500
N931        N  0.62783566  0.38824152  0.29203151     0.16600
C932        C  0.63572305  0.37459261  0.25011989    -0.29900
H933        H  0.62954664  0.38022871  0.21361190     0.18600
C934        C  0.62130777  0.24291812  0.32866772    -0.28900
N935        N  0.60410125  0.21595207  0.28961513     0.15300
C936        C  0.61799873  0.23977626  0.24814660    -0.28800
C937        C  0.75175016  0.36978549  0.32225192    -0.29100
N938        N  0.77303741  0.38081041  0.28041305     0.15900
H939        H  0.76380602  0.37621895  0.35885421     0.18500
C940        C  0.74763176  0.36795833  0.24193085    -0.29100
H941        H  0.75615361  0.37290478  0.20407624     0.18500
H942        H  0.60819976  0.22691747  0.21154801     0.18500
H943        H  0.63745275  0.38192794  0.36829144     0.18600
H944        H  0.61511634  0.23298900  0.36631627     0.18500
C945        C  0.66982295  0.32832259  0.43336450    -0.10900
C946        C  0.67240645  0.32937233  0.38950581    -0.12500
C947        C  0.66772989  0.32792279  0.18298376    -0.10900
C948        C  0.66958592  0.32974893  0.13901004    -0.12500
C949        C  0.57499570  0.14098479  0.26446448    -0.14100
C950        C  0.57500824  0.17003736  0.29386276    -0.29200
H951        H  0.59598051  0.15228176  0.23487135     0.15000
H952        H  0.55622423  0.15875726  0.32572690     0.15500
C953        C  0.81536170  0.40425280  0.27494861    -0.14100
C954        C  0.84104905  0.42008207  0.31275769    -0.29200
H955        H  0.82692676  0.41130432  0.23817672     0.15000
H956        H  0.82191474  0.93154147  0.35490008     0.15500
C957        C  0.61160859  0.41393863  0.29786154    -0.14100
C958        C  0.59352646  0.42107592  0.26185504    -0.29200
H959        H  0.61428948  0.42816924  0.33368665     0.15000
H960        H  0.58913750  0.40628113  0.22608462     0.15500
C961        C  0.57771498  0.17276023  0.02866526    -0.14100
C962        C  0.57558165  0.14617230  0.06337044    -0.29200
H963        H  0.55943110  0.15894712  0.99592944     0.15000
H964        H  0.59609182  0.15947019  0.09414238     0.15500
C965        C  0.84056268  0.42693505  0.06448484    -0.14100
C966        C  0.81471305  0.40811610  0.02711061    -0.29200
H967        H  0.83017148  0.42463661  0.10129705     0.15000
H968        H  0.82617512  0.41228836  0.99046386     0.15500
C969        C  0.60320943  0.41045155  0.04652158    -0.14100
C970        C  0.59836599  0.43072709  0.00938168    -0.29200
H971        H  0.59428204  0.41336605  0.08276693     0.15000
H972        H  0.60795463  0.42941789  0.97307416     0.15500
C973        C  0.91269603  0.11858787  0.29870939    -0.14100
C974        C  0.92065957  0.10160880  0.26073644    -0.29200
H975        H  0.91812870  0.11214927  0.33546100     0.15000
H976        H  0.91559668  0.10712343  0.22353235     0.15500
C977        C  0.91953080  0.35542406  0.27892956    -0.14100
C978        C  0.94793354  0.38304415  0.31068273    -0.29200
H979        H  0.91468867  0.36817049  0.24604019     0.15000
H980        H  0.95512496  0.37037305  0.34160692     0.15500
C981        C  0.67486954  0.10081715  0.31250637    -0.14100
C982        C  0.70025966  0.10604638  0.27797093    -0.29200
H983        H  0.68555157  0.11811516  0.34714799     0.15000
H984        H  0.68850334  0.08966162  0.24290829     0.15500
C985        C  0.92033159  0.09714427  0.50967762    -0.14100
C986        C  0.90708135  0.10966149  0.54651385    -0.29200
H987        H  0.91062033  0.10167499  0.97176858     0.15000
H988        H  0.90801415  0.09919270  0.58313772     0.15500
C989        C  0.91945905  0.35472720  0.05247253    -0.14100
C990        C  0.94813261  0.38167862  0.02169398    -0.29200
H991        H  0.91326199  0.36800227  0.08386463     0.15000
H992        H  0.95934183  0.37063522  0.48880716     0.15500
C993        C  0.67826118  0.10284499  0.06371513    -0.14100
C994        C  0.70271963  0.11695057  0.02559108    -0.29200
H995        H  0.68971748  0.10889099  0.10069764     0.15000
H996        H  0.69171165  0.09957221  0.49273957     0.15500
C997        C  0.84982922  0.19883371  0.43607419    -0.10900
C998        C  0.84722842  0.19861860  0.39208957    -0.12500
C999        C  0.84410629  0.19132961  0.14208976    -0.10900
C1000       C  0.84513105  0.19189084  0.18593858    -0.12500
C1001       C  0.84859575  0.19576958  0.58893717     0.32400
C1002       C  0.84996754  0.19729337  0.99006321     0.32400
C1003       C  0.80812540  0.17384733  0.56322558    -0.03800
C1004       C  0.87171616  0.24131925  0.56671608    -0.04600
C1005       C  0.86690346  0.17383542  0.56457598    -0.04500
C1006       C  0.80803199  0.17231163  0.01087211    -0.03800
C1007       C  0.87038342  0.24124851  0.01728484    -0.04600
C1008       C  0.86824607  0.17504560  0.01459618    -0.04500
C1009       C  0.77011078  0.15283135  0.99294634    -0.29900
N1010       N  0.74496408  0.13909954  0.03107864     0.16600
C1011       C  0.76874748  0.15151173  0.57595300    -0.29900
H1012       H  0.75737316  0.14391556  0.61256120     0.18600
C1013       C  0.89038111  0.28472613  0.00558420    -0.28900
N1014       N  0.90279192  0.31043798  0.54499159     0.15300
C1015       C  0.88977767  0.28344112  0.58369975    -0.28800
C1016       C  0.88801555  0.15618403  0.00089210    -0.29100
N1017       N  0.89771452  0.14331104  0.04189184     0.15900
H1018       H  0.89520871  0.15277085  0.96409063     0.18500
C1019       C  0.88165963  0.15053035  0.58044705    -0.29100
H1020       H  0.88396289  0.14327210  0.61796918     0.18500
H1021       H  0.89271878  0.29379337  0.62128218     0.18500
H1022       H  0.76141624  0.14955997  0.95501037     0.18600
H1023       H  0.89705834  0.29811457  0.96930206     0.18500
C1024       C  0.85235746  0.20071546  0.83899724     0.32400
C1025       C  0.85270104  0.19626301  0.74007138     0.32400
C1026       C  0.81172096  0.17895952  0.81355996    -0.03800
C1027       C  0.87694874  0.24489555  0.81307437    -0.04600
C1028       C  0.86867639  0.17538297  0.81770122    -0.04500
C1029       C  0.81227482  0.17685906  0.76303174    -0.03800
C1030       C  0.87675541  0.24220930  0.76238118    -0.04600
C1031       C  0.86911193  0.17315001  0.76706794    -0.04500
C1032       C  0.77439712  0.15852512  0.74608992    -0.29900
N1033       N  0.75054365  0.14926429  0.78471926     0.16600
C1034       C  0.77296709  0.16157417  0.82633449    -0.29900
H1035       H  0.76221784  0.15837591  0.86295870     0.18600
C1036       C  0.89601498  0.28381546  0.74485140    -0.28900
N1037       N  0.90838730  0.31192038  0.78315829     0.15300
C1038       C  0.89693812  0.28870449  0.82519440    -0.28800
C1039       C  0.88463058  0.14922211  0.75554788    -0.29100
N1040       N  0.89341589  0.13696347  0.79781784     0.15900
H1041       H  0.88841324  0.14078420  0.71920666     0.18500
C1042       C  0.88346639  0.15254669  0.83580199    -0.29100
H1043       H  0.88669272  0.14747368  0.87381672     0.18500
H1044       H  0.90099440  0.30240027  0.86143634     0.18500
H1045       H  0.76477626  0.15241159  0.70833818     0.18600
H1046       H  0.89984308  0.29306412  0.70702501     0.18500
C1047       C  0.63579693  0.07172080  0.55818282     0.78800
Tb1048     Tb  0.96109038  0.01483545  0.54138872     1.80700
O1049       O  0.61045816  0.06178184  0.59067406    -0.49200
O1050       O  0.58207846  0.46735976  0.55838268    -0.56700
C1051       C  0.55221712  0.09856131  0.53296842     0.94600
O1052       O  0.93701901  0.05749003  0.56222209    -0.56200
Tb1053     Tb  0.55404917  0.01215789  0.54217536     1.78100
O1054       O  0.90178335  0.46099070  0.51199648    -0.56700
O1055       O  0.00727544  0.45479078  0.50390625    -0.75500
O1056       O  0.56209691  0.07554632  0.51181309    -0.74800
O1057       O  0.54220905  0.04023542  0.97189773    -0.60100
C1058       C  0.97438588  0.43174073  0.52504932     0.94200
O1059       O  0.99887997  0.03464279  0.61202329    -0.72000
C1060       C  0.88100483  0.95646266  0.56402842     0.77700
C1061       C  0.57916698  0.45115490  0.51688025     0.78600
O1062       O  0.61762240  0.06723183  0.01619071    -0.57300
O1063       O  0.56458119  0.46311606  0.48540477    -0.49200
O1064       O  0.97418172  0.00228601  0.95587213    -0.75300
O1065       O  0.53782607  0.02028848  0.62073930    -0.59300
C1066       C  0.50892593  0.01781949  0.64175046     0.92400
C1067       C  0.50994230  0.02287171  0.94766852     0.93700
C1068       C  0.93631266  0.07300451  0.01483951     0.78000
O1069       O  0.90663638  0.98296628  0.59480180    -0.48600
O1070       O  0.94275869  0.54662446  0.98820610    -0.49800
O1071       O  0.96158469  0.44900427  0.55228925    -0.62600
O1072       O  0.52328115  0.08169547  0.56210602    -0.63700
C1073       C  0.64102380  0.08842666  0.81008897     0.78800
Tb1074     Tb  0.96151226  0.01373875  0.78144437     1.80700
O1075       O  0.61676484  0.07367184  0.84446053    -0.49200
O1076       O  0.58588389  0.47762812  0.81508724    -0.56700
C1077       C  0.54423447  0.10149926  0.80042352     0.94600
O1078       O  0.93673089  0.05375194  0.81179264    -0.56200
Tb1079     Tb  0.55982690  0.02562856  0.79641154     1.78100
O1080       O  0.89918459  0.46819519  0.76501859    -0.56700
O1081       O  0.00782123  0.45834088  0.82689151    -0.75500
O1082       O  0.55632627  0.08421172  0.77198428    -0.74800
O1083       O  0.53831352  0.02252574  0.71694314    -0.60100
C1084       C  0.97594823  0.43400986  0.80320223     0.94200
O1085       O  0.97691381  0.00714957  0.86116906    -0.72000
C1086       C  0.87917180  0.95447281  0.77283074     0.77700
C1087       C  0.57748634  0.45610494  0.77595167     0.78600
O1088       O  0.62478721  0.07351882  0.76908789    -0.57300
O1089       O  0.55913360  0.46445584  0.74586643    -0.49200
O1090       O  0.99114357  0.02646784  0.70618869    -0.75300
O1091       O  0.54320429  0.03480526  0.87446767    -0.59300
C1092       C  0.51094595  0.02315544  0.89516855     0.92400
C1093       C  0.50881346  0.01822796  0.69473504     0.93700
C1094       C  0.93961440  0.07319656  0.77279500     0.78000
O1095       O  0.89710635  0.97026974  0.81301814    -0.48600
O1096       O  0.95513555  0.55771548  0.73882911    -0.49800
O1097       O  0.96435892  0.45005223  0.77216254    -0.62600
O1098       O  0.51281420  0.07804200  0.82437340    -0.63700
C1099       C  0.67017010  0.33002210  0.48697534     0.32400
C1100       C  0.67476880  0.33609733  0.58586611     0.32400
C1101       C  0.65662532  0.35764540  0.51024135    -0.03800
C1102       C  0.64511937  0.28641346  0.51391941    -0.04600
C1103       C  0.71145904  0.34990563  0.50950026    -0.04500
C1104       C  0.65958600  0.36064528  0.56080765    -0.03800
C1105       C  0.64733148  0.29001486  0.56458737    -0.04600
C1106       C  0.71415035  0.35327977  0.56009294    -0.04500
C1107       C  0.64363989  0.38261381  0.57650954    -0.29900
N1108       N  0.63022503  0.39281279  0.53732722     0.16600
C1109       C  0.63778688  0.37774476  0.49628627    -0.29900
H1110       H  0.62948156  0.38020428  0.45959797     0.18600
C1111       C  0.62073653  0.24939129  0.58292014    -0.28900
N1112       N  0.60320518  0.22080384  0.54519783     0.15300
C1113       C  0.61768978  0.24286443  0.50268255    -0.28800
C1114       C  0.75379914  0.37455650  0.57233026    -0.29100
N1115       N  0.77478856  0.38367341  0.53043762     0.15900
H1116       H  0.76619256  0.38348072  0.60878233     0.18500
C1117       C  0.74905600  0.36856241  0.49213378    -0.29100
H1118       H  0.75733307  0.37222462  0.45422593     0.18500
H1119       H  0.60826904  0.22852877  0.46658385     0.18500
H1120       H  0.64069994  0.38946739  0.61404187     0.18600
H1121       H  0.61447742  0.24103810  0.62083928     0.18500
C1122       C  0.67030497  0.33814479  0.73649290     0.32400
C1123       C  0.67101364  0.33517124  0.83532633     0.32400
C1124       C  0.65186072  0.35959172  0.76269648    -0.03800
C1125       C  0.64812311  0.29238055  0.75829109    -0.04600
C1126       C  0.71101318  0.36016872  0.76072172    -0.04500
C1127       C  0.65259016  0.35794551  0.81335299    -0.03800
C1128       C  0.64791780  0.29064006  0.80894541    -0.04600
C1129       C  0.71195864  0.35887543  0.81126517    -0.04500
C1130       C  0.63626004  0.37904658  0.83133842    -0.31500
N1131       N  0.62515108  0.39333757  0.79342534     0.16600
C1132       C  0.63451136  0.38178397  0.75105596    -0.29900
H1133       H  0.63023623  0.39000864  0.71486783     0.18600
C1134       C  0.62696174  0.24710215  0.82121147    -0.28900
N1135       N  0.61530144  0.22290826  0.77928138     0.15300
C1136       C  0.62841213  0.25022655  0.74086398    -0.28800
C1137       C  0.75145451  0.37991869  0.82490274    -0.29100
N1138       N  0.77367434  0.39352906  0.78369520     0.15900
H1139       H  0.76290858  0.38498199  0.86172301     0.18500
C1140       C  0.74908249  0.38156757  0.74465443    -0.29100
H1141       H  0.75836672  0.38804359  0.70708951     0.18500
H1142       H  0.62413463  0.23999188  0.70315452     0.18500
H1143       H  0.63319228  0.38431310  0.86937973     0.18600
H1144       H  0.62177131  0.23409923  0.85762358     0.18500
C1145       C  0.66888831  0.33372769  0.93273747    -0.10900
C1146       C  0.67043284  0.33398739  0.88884886    -0.12500
C1147       C  0.67182801  0.33936901  0.68300154    -0.10900
C1148       C  0.67490627  0.33886139  0.63934998    -0.12500
C1149       C  0.56658875  0.14935742  0.80616502    -0.14100
C1150       C  0.59461540  0.17629131  0.77467332    -0.29200
H1151       H  0.55887696  0.16280744  0.83580996     0.15000
H1152       H  0.60022477  0.16283136  0.74294591     0.15500
C1153       C  0.81599397  0.41780342  0.77852506    -0.14100
C1154       C  0.84158493  0.42824173  0.81559338    -0.29200
H1155       H  0.82766622  0.42858412  0.74214336     0.15000
H1156       H  0.82321358  0.91422937  0.73126059     0.15500
C1157       C  0.60989806  0.41993989  0.80035628    -0.14100
C1158       C  0.58976898  0.42595194  0.76605227    -0.29200
H1159       H  0.61460221  0.43534542  0.83593205     0.15000
H1160       H  0.58343033  0.40995528  0.73068200     0.15500
C1161       C  0.57500202  0.17473742  0.55135829    -0.14100
C1162       C  0.57572649  0.14567734  0.52287163    -0.29200
H1163       H  0.55641597  0.16364388  0.58339066     0.15000
H1164       H  0.59672608  0.15725071  0.49326713     0.15500
C1165       C  0.84308083  0.42791362  0.56154626    -0.14100
C1166       C  0.81710119  0.40757383  0.52453653    -0.29200
H1167       H  0.83287161  0.42589398  0.59838263     0.15000
H1168       H  0.82831795  0.41101990  0.48786203     0.15500
C1169       C  0.61161055  0.41601603  0.54274221    -0.14100
C1170       C  0.59377671  0.42329295  0.50656346    -0.29200
H1171       H  0.61261077  0.42872090  0.57897497     0.15000
H1172       H  0.59175205  0.41100972  0.46991542     0.15500
C1173       C  0.90896035  0.11040405  0.80351972    -0.14100
C1174       C  0.92587126  0.10241506  0.76688287    -0.29200
H1175       H  0.90711234  0.09671196  0.83913134     0.15000
H1176       H  0.92906332  0.11674729  0.73144658     0.15500
C1177       C  0.92778736  0.35818184  0.77778358    -0.14100
C1178       C  0.95323360  0.38668310  0.81139757    -0.29200
H1179       H  0.92399535  0.37019071  0.74357115     0.15000
H1180       H  0.95963752  0.37498652  0.84392659     0.15500
C1181       C  0.68418180  0.11748564  0.81737678    -0.14100
C1182       C  0.70841565  0.12775815  0.77952485    -0.29200
H1183       H  0.69578227  0.12727565  0.85421200     0.15000
H1184       H  0.69564975  0.11736546  0.74309047     0.15500
C1185       C  0.92178249  0.10123077  0.00757219    -0.14100
C1186       C  0.91793726  0.12158409  0.04555810    -0.29200
H1187       H  0.92015981  0.10696352  0.47259169     0.15000
H1188       H  0.92752195  0.11864483  0.08152501     0.15500
C1189       C  0.92268487  0.35698083  0.54904805    -0.14100
C1190       C  0.95119169  0.38399169  0.51806695    -0.29200
H1191       H  0.91677314  0.37037212  0.58058417     0.15000
H1192       H  0.95650949  0.36834941  0.99266924     0.15500
C1193       C  0.67898470  0.10179751  0.56616292    -0.14100
C1194       C  0.70395325  0.11216993  0.52897475    -0.29200
H1195       H  0.69008496  0.11476259  0.60252520     0.15000
H1196       H  0.69022396  0.10971991  0.98891660     0.15500
C1197       C  0.85183330  0.20016522  0.93656569    -0.10900
C1198       C  0.85220132  0.20188393  0.89262391    -0.12500
C1199       C  0.84907968  0.19464710  0.64255660    -0.10900
C1200       C  0.85150271  0.19453072  0.68643443    -0.12500
C1201       C  0.85148992  0.69239291  0.09092105     0.32400
C1202       C  0.85649319  0.69665829  0.49188178     0.32400
C1203       C  0.81131061  0.67101579  0.06438304    -0.03800
C1204       C  0.87557568  0.73805322  0.06895987    -0.04600
C1205       C  0.86967139  0.67016559  0.06725201    -0.04500
C1206       C  0.81513279  0.67149407  0.51406957    -0.03800
C1207       C  0.87675086  0.74108215  0.51813679    -0.04600
C1208       C  0.87588943  0.67536904  0.51611722    -0.04500
C1209       C  0.77695228  0.64941968  0.49671637    -0.29900
N1210       N  0.75210695  0.63457826  0.53512262     0.16600
C1211       C  0.77189210  0.65045236  0.07630015    -0.29900
H1212       H  0.76003780  0.64361339  0.11267453     0.18600
C1213       C  0.89393155  0.78396234  0.50520947    -0.28900
N1214       N  0.91143057  0.80734006  0.04728558     0.15300
C1215       C  0.89754327  0.78037726  0.08605518    -0.28800
C1216       C  0.89413941  0.65462671  0.50234811    -0.29100
N1217       N  0.90377373  0.64169340  0.54343962     0.15900
H1218       H  0.89971583  0.64929827  0.46545516     0.18500
C1219       C  0.88690390  0.64954162  0.08365302    -0.29100
H1220       H  0.89052273  0.64375622  0.12130492     0.18500
H1221       H  0.90281985  0.79096003  0.12374211     0.18500
H1222       H  0.76777994  0.64448643  0.45882628     0.18600
H1223       H  0.89821454  0.79615275  0.46848227     0.18500
C1224       C  0.85365407  0.69722205  0.34057890     0.32400
C1225       C  0.85452694  0.69304019  0.24173090     0.32400
C1226       C  0.81316804  0.67732541  0.31475718    -0.03800
C1227       C  0.87991115  0.74130140  0.31484042    -0.04600
C1228       C  0.86831650  0.67019654  0.31925203    -0.04500
C1229       C  0.81430305  0.67580863  0.26417572    -0.03800
C1230       C  0.88040035  0.73863883  0.26422290    -0.04600
C1231       C  0.86875998  0.66793084  0.26868834    -0.04500
C1232       C  0.77655816  0.65646689  0.24647473    -0.29900
N1233       N  0.75183554  0.64539102  0.28449650     0.16600
C1234       C  0.77374955  0.65797303  0.32667227    -0.29900
H1235       H  0.76199604  0.65216446  0.36306602     0.18600
C1236       C  0.90492362  0.78005419  0.24697868    -0.28900
N1237       N  0.91863476  0.80813308  0.28534923     0.15300
C1238       C  0.90367298  0.78511783  0.32717462    -0.28800
C1239       C  0.88481454  0.64462225  0.25698152    -0.29100
N1240       N  0.89398233  0.63270039  0.29917608     0.15900
H1241       H  0.88987629  0.63766609  0.22055823     0.18500
C1242       C  0.88390910  0.64813369  0.33721506    -0.29100
H1243       H  0.88831573  0.64421583  0.37521126     0.18500
H1244       H  0.90951568  0.79917684  0.36347119     0.18500
H1245       H  0.76741371  0.64933847  0.20858966     0.18600
H1246       H  0.91155045  0.78937259  0.20927443     0.18500
C1247       C  0.63942766  0.57459939  0.05453308     0.78800
Tb1248     Tb  0.96488500  0.51307161  0.03930573     1.80700
O1249       O  0.61312312  0.56131026  0.08669722    -0.49200
O1250       O  0.56523164  0.96317076  0.07299318    -0.56700
C1251       C  0.55132957  0.59800732  0.05468231     0.94600
O1252       O  0.95097931  0.56440692  0.06266261    -0.56200
Tb1253     Tb  0.55886706  0.51529382  0.03372880     1.78100
O1254       O  0.88912534  0.97338660  0.01653932    -0.56700
O1255       O  0.99009462  0.94525947  0.05109978    -0.75500
O1256       O  0.56509329  0.58226299  0.02662763    -0.74800
O1257       O  0.53995727  0.51388095  0.45946824    -0.60100
C1258       C  0.95969658  0.92760879  0.02362598     0.94200
O1259       O  0.99383781  0.52569131  0.11610684    -0.72000
C1260       C  0.88366428  0.45502615  0.05596625     0.77700
C1261       C  0.57535405  0.95596981  0.03258791     0.78600
O1262       O  0.62672379  0.55361181  0.51567517    -0.57300
O1263       O  0.57396275  0.97754249  0.99823401    -0.49200
O1264       O  0.98480506  0.50317425  0.46115699    -0.75300
O1265       O  0.52856655  0.49408967  0.10986611    -0.59300
C1266       C  0.51077716  0.50737850  0.13424296     0.92400
C1267       C  0.51365094  0.51642163  0.43790261     0.93700
C1268       C  0.94320499  0.57129451  0.51889283     0.78000
O1269       O  0.90836002  0.47928178  0.08870473    -0.48600
O1270       O  0.94707294  0.05476827  0.48763234    -0.49800
O1271       O  0.95024464  0.95017191  0.00061260    -0.62600
O1272       O  0.51869353  0.57405232  0.07608458    -0.63700
C1273       C  0.64078437  0.57591594  0.30439940     0.78800
Tb1274     Tb  0.96479901  0.51208938  0.28931902     1.80700
O1275       O  0.61443890  0.56394898  0.33590866    -0.49200
O1276       O  0.55685034  0.95827640  0.33771497    -0.56700
C1277       C  0.55130053  0.59141828  0.27851352     0.94600
O1278       O  0.94426832  0.55699249  0.31644536    -0.56200
Tb1279     Tb  0.56020257  0.51072050  0.28666903     1.78100
O1280       O  0.89021023  0.95493797  0.27048241    -0.56700
O1281       O  0.98748878  0.94525808  0.26672067    -0.75500
O1282       O  0.56131229  0.56986934  0.25432998    -0.74800
O1283       O  0.53418441  0.49872516  0.20806400    -0.60100
C1284       C  0.95924884  0.92797382  0.29649540     0.94200
O1285       O  0.98557601  0.50959562  0.36700540    -0.72000
C1286       C  0.88407309  0.44964130  0.30486509     0.77700
C1287       C  0.57383020  0.94955664  0.30614277     0.78600
O1288       O  0.62697389  0.55655278  0.26410067    -0.57300
O1289       O  0.57801461  0.96807734  0.26597538    -0.49200
O1290       O  0.98874543  0.51937256  0.21115058    -0.75300
O1291       O  0.54053349  0.51498677  0.36435905    -0.59300
C1292       C  0.51320783  0.51559673  0.38552619     0.92400
C1293       C  0.50996921  0.50483203  0.18663973     0.93700
C1294       C  0.93899833  0.56760951  0.27507864     0.78000
O1295       O  0.90883678  0.47000966  0.33896117    -0.48600
O1296       O  0.94079147  0.05375312  0.23641294    -0.49800
O1297       O  0.94842292  0.95018124  0.31743786    -0.62600
O1298       O  0.52207474  0.57248321  0.30700295    -0.63700
C1299       C  0.66235673  0.83464800  0.99699279     0.32400
C1300       C  0.66411639  0.82922411  0.09548718     0.32400
C1301       C  0.64179917  0.85241715  0.02497166    -0.03800
C1302       C  0.64321082  0.78867558  0.01692863    -0.04600
C1303       C  0.70335214  0.85892682  0.02059481    -0.04500
C1304       C  0.64260985  0.84967133  0.07543397    -0.03800
C1305       C  0.64376961  0.78573947  0.06735804    -0.04600
C1306       C  0.70501663  0.85635490  0.07102870    -0.04500
C1307       C  0.62424424  0.86871669  0.09387316    -0.29900
N1308       N  0.61274661  0.88318943  0.05630961     0.16600
C1309       C  0.62325947  0.87314710  0.01389027    -0.29900
H1310       H  0.61881024  0.88104873  0.97766474     0.18600
C1311       C  0.62684870  0.74248514  0.07804790    -0.28900
N1312       N  0.61644813  0.71954692  0.03534655     0.15300
C1313       C  0.62666288  0.74745934  0.99787437    -0.28800
C1314       C  0.74483883  0.87745688  0.08347890    -0.29100
N1315       N  0.76627348  0.89232910  0.04171026     0.15900
H1316       H  0.75702214  0.88114376  0.11969278     0.18500
C1317       C  0.74104238  0.88116068  0.00358494    -0.29100
H1318       H  0.74962414  0.88809205  0.96585432     0.18500
H1319       H  0.62249697  0.73831701  0.95974348     0.18500
H1320       H  0.62046228  0.87297082  0.13168808     0.18600
H1321       H  0.62342521  0.72895953  0.11394387     0.18500
C1322       C  0.66121680  0.82243116  0.24631585     0.32400
C1323       C  0.66301630  0.82830050  0.34549790     0.32400
C1324       C  0.64667420  0.84913449  0.26808696    -0.03800
C1325       C  0.63636839  0.77894828  0.27278332    -0.04600
C1326       C  0.70169160  0.84288681  0.27023074    -0.04500
C1327       C  0.64713795  0.85216265  0.31870898    -0.03800
C1328       C  0.63709578  0.78196593  0.32352437    -0.04600
C1329       C  0.70333976  0.84651760  0.32086224    -0.04500
C1330       C  0.63138198  0.87600992  0.33014866    -0.31500
N1331       N  0.62186852  0.88728386  0.28770000     0.16600
C1332       C  0.63135621  0.87118510  0.24998909    -0.29900
H1333       H  0.62700840  0.87500856  0.21220802     0.18600
C1334       C  0.61313958  0.74016106  0.34072710    -0.28900
N1335       N  0.59871909  0.71209212  0.30207566     0.15300
C1336       C  0.61261544  0.73539738  0.26033360    -0.28800
C1337       C  0.74292093  0.86753639  0.33385708    -0.29100
N1338       N  0.76427471  0.87582648  0.29238662     0.15900
H1339       H  0.75511577  0.87640772  0.37041851     0.18500
C1340       C  0.73916604  0.86046765  0.25367521    -0.29100
H1341       H  0.74782962  0.86319447  0.21599365     0.18500
H1342       H  0.60581148  0.72177634  0.22377991     0.18500
H1343       H  0.62746057  0.88459975  0.36635020     0.18600
H1344       H  0.60719524  0.73068336  0.37850704     0.18500
C1345       C  0.66280166  0.82983625  0.44370586    -0.10900
C1346       C  0.66321455  0.83009429  0.39948634    -0.12500
C1347       C  0.66158978  0.82154106  0.19262934    -0.10900
C1348       C  0.66364506  0.82500034  0.14882972    -0.12500
C1349       C  0.57450819  0.63909183  0.27309520    -0.14100
C1350       C  0.57348284  0.66540641  0.30603203    -0.29200
H1351       H  0.59477126  0.65306148  0.24279307     0.15000
H1352       H  0.55553154  0.65154685  0.33836645     0.15500
C1353       C  0.80643252  0.89911726  0.28678019    -0.14100
C1354       C  0.83224442  0.92727246  0.32040559    -0.29200
H1355       H  0.81748956  0.89678446  0.25176700     0.15000
H1356       H  0.83059872  0.41417271  0.34989283     0.15500
C1357       C  0.60575054  0.91300707  0.28051190    -0.14100
C1358       C  0.58859129  0.92178347  0.31589071    -0.29200
H1359       H  0.60696799  0.92504839  0.24408234     0.15000
H1360       H  0.58581946  0.90915846  0.35225987     0.15500
C1361       C  0.59808988  0.67345772  0.02941065    -0.14100
C1362       C  0.57319225  0.64532169  0.06268482    -0.29200
H1363       H  0.60207456  0.66124682  0.99535235     0.15000
H1364       H  0.56635361  0.65725252  0.09469520     0.15500
C1365       C  0.83538031  0.92606007  0.06939190    -0.14100
C1366       C  0.80833813  0.91700034  0.03464846    -0.29200
H1367       H  0.82666122  0.91366150  0.10601675     0.15000
H1368       H  0.81860189  0.92934620  0.99818917     0.15500
C1369       C  0.59524654  0.90782033  0.06268772    -0.14100
C1370       C  0.58867416  0.92647659  0.02535206    -0.29200
H1371       H  0.58908987  0.91326269  0.09948252     0.15000
H1372       H  0.59522045  0.92225892  0.98840617     0.15500
C1373       C  0.91160125  0.60824692  0.30509485    -0.14100
C1374       C  0.92317621  0.59465617  0.26743005    -0.29200
H1375       H  0.91522546  0.60017964  0.34188944     0.15000
H1376       H  0.92000568  0.60213816  0.23031264     0.15500
C1377       C  0.94344095  0.85455457  0.28006217    -0.14100
C1378       C  0.93796209  0.88111054  0.30688904    -0.29200
H1379       H  0.96370699  0.86758873  0.24962196     0.15000
H1380       H  0.91568954  0.86767513  0.33508336     0.15500
C1381       C  0.68357009  0.60760801  0.31408469    -0.14100
C1382       C  0.70946953  0.61982400  0.27773337    -0.29200
H1383       H  0.69368551  0.61900455  0.35112062     0.15000
H1384       H  0.69801487  0.60840049  0.24095253     0.15500
C1385       C  0.92799125  0.59889774  0.51036337    -0.14100
C1386       C  0.92253287  0.61835043  0.54795880    -0.29200
H1387       H  0.91566501  0.59774430  0.97553084     0.15000
H1388       H  0.93065233  0.61440723  0.58439365     0.15500
C1389       C  0.93647367  0.85404822  0.05113279    -0.14100
C1390       C  0.93457398  0.87972698  0.01848054    -0.29200
H1391       H  0.95569094  0.86856785  0.08303529     0.15000
H1392       H  0.95154098  0.86923655  0.48515433     0.15500
C1393       C  0.68240982  0.60345162  0.06461171    -0.14100
C1394       C  0.70804493  0.61620809  0.02771875    -0.29200
H1395       H  0.69273581  0.61235278  0.10202429     0.15000
H1396       H  0.69777238  0.59685459  0.49278813     0.15500
C1397       C  0.85636666  0.69823337  0.43822251    -0.10900
C1398       C  0.85448761  0.69879678  0.39427560    -0.12500
C1399       C  0.85146505  0.69126398  0.14440093    -0.10900
C1400       C  0.85368292  0.69132425  0.18823041    -0.12500
C1401       C  0.85398071  0.69400525  0.59082213     0.32400
C1402       C  0.85472709  0.69507597  0.99200613     0.32400
C1403       C  0.81357720  0.66995138  0.56468173    -0.03800
C1404       C  0.87528845  0.73965180  0.56879430    -0.04600
C1405       C  0.87455176  0.67444680  0.56678588    -0.04500
C1406       C  0.81325453  0.67256768  0.01369996    -0.03800
C1407       C  0.87696089  0.73951854  0.01831207    -0.04600
C1408       C  0.87152378  0.67126129  0.01667318    -0.04500
C1409       C  0.77539987  0.65326172  0.99600350    -0.29900
N1410       N  0.75033335  0.63984746  0.03414362     0.16600
C1411       C  0.77410385  0.64686197  0.57704231    -0.29900
H1412       H  0.76249457  0.63940680  0.61354593     0.18600
C1413       C  0.89912092  0.78285953  0.00562119    -0.28900
N1414       N  0.90259063  0.80828089  0.54666730     0.15300
C1415       C  0.89100916  0.78149842  0.58553879    -0.28800
C1416       C  0.89000116  0.65071830  0.00335698    -0.29100
N1417       N  0.89914852  0.63762550  0.04469808     0.15900
H1418       H  0.89677941  0.64642259  0.96665524     0.18500
C1419       C  0.89195959  0.65382248  0.58269553    -0.29100
H1420       H  0.89519828  0.64732729  0.62019540     0.18500
H1421       H  0.89316002  0.79172581  0.62302700     0.18500
H1422       H  0.76657859  0.64907899  0.95803724     0.18600
H1423       H  0.90639107  0.79560427  0.96906914     0.18500
C1424       C  0.85649069  0.69704223  0.84064397     0.32400
C1425       C  0.85636313  0.69328759  0.74169205     0.32400
C1426       C  0.81538626  0.66939695  0.81586862    -0.03800
C1427       C  0.87555702  0.74122588  0.81482780    -0.04600
C1428       C  0.87849365  0.67818518  0.81838126    -0.04500
C1429       C  0.81574784  0.66761612  0.76527375    -0.03800
C1430       C  0.87502226  0.73879873  0.76414590    -0.04600
C1431       C  0.87853417  0.67623624  0.76771223    -0.04500
C1432       C  0.77742694  0.64638587  0.74880694    -0.29900
N1433       N  0.75342939  0.63518310  0.78768410     0.16600
C1434       C  0.77621229  0.64906397  0.82907656    -0.29900
H1435       H  0.76551120  0.64614202  0.86568980     0.18600
C1436       C  0.89024223  0.77988893  0.74674144    -0.28900
N1437       N  0.90081162  0.80763905  0.78510576     0.15300
C1438       C  0.89206484  0.78457541  0.82709717    -0.28800
C1439       C  0.89806451  0.65682288  0.75508460    -0.29100
N1440       N  0.90972250  0.64700190  0.79680834     0.15900
H1441       H  0.90224809  0.64936455  0.71844561     0.18500
C1442       C  0.89797846  0.66008133  0.83542328    -0.29100
H1443       H  0.90220275  0.65539351  0.87324263     0.18500
H1444       H  0.89627549  0.79802545  0.86349781     0.18500
H1445       H  0.76771893  0.64098451  0.71109073     0.18600
H1446       H  0.89331958  0.78907533  0.70894796     0.18500
C1447       C  0.64137735  0.57009390  0.55684771     0.78800
Tb1448     Tb  0.96721484  0.51476671  0.53683498     1.80700
O1449       O  0.61549031  0.55869302  0.58901696    -0.49200
O1450       O  0.57220183  0.96524854  0.56865132    -0.56700
C1451       C  0.55655857  0.59756595  0.53420805     0.94600
O1452       O  0.95662576  0.56892095  0.55953427    -0.56200
Tb1453     Tb  0.55996794  0.51157832  0.53777313     1.78100
O1454       O  0.89556273  0.95729737  0.52334507    -0.56700
O1455       O  0.99809028  0.95252844  0.49945702    -0.75500
O1456       O  0.56666259  0.57552884  0.51117956    -0.74800
O1457       O  0.54612329  0.53923337  0.96302793    -0.60100
C1458       C  0.96605944  0.92957202  0.52205024     0.94200
O1459       O  0.99422031  0.52608914  0.61465340    -0.72000
C1460       C  0.88606404  0.45647192  0.55297763     0.77700
C1461       C  0.57082729  0.94878028  0.52778891     0.78600
O1462       O  0.62549878  0.55942830  0.01260532    -0.57300
O1463       O  0.55901791  0.96194392  0.49412043    -0.49200
O1464       O  0.98223907  0.50198219  0.96299303    -0.75300
O1465       O  0.54002197  0.51135655  0.61683095    -0.59300
C1466       C  0.51300447  0.51275384  0.63768055     0.92400
C1467       C  0.51341709  0.52512060  0.94146101     0.93700
C1468       C  0.94017636  0.56886753  0.02114704     0.78000
O1469       O  0.91069995  0.48004188  0.58607078    -0.48600
O1470       O  0.93177714  0.04542516  0.98353679    -0.49800
O1471       O  0.95338798  0.94669608  0.54996983    -0.62600
O1472       O  0.52676855  0.57922085  0.56196763    -0.63700
C1473       C  0.64338705  0.57685939  0.81108054     0.78800
Tb1474     Tb  0.96601220  0.51357449  0.78925935     1.80700
O1475       O  0.61818568  0.56288923  0.84436847    -0.49200
O1476       O  0.58968724  0.98837051  0.81540392    -0.56700
C1477       C  0.55424078  0.60191124  0.77838376     0.94600
O1478       O  0.95116352  0.56375083  0.81438407    -0.56200
Tb1479     Tb  0.56145635  0.51981057  0.79352040     1.78100
O1480       O  0.90220747  0.96673030  0.73711652    -0.56700
O1481       O  0.00112355  0.95479295  0.82224016    -0.75500
O1482       O  0.56592695  0.58008117  0.75835388    -0.74800
O1483       O  0.53966889  0.51313206  0.71341561    -0.60100
C1484       C  0.96791431  0.93050891  0.80116752     0.94200
O1485       O  0.98430946  0.50990561  0.86822948    -0.72000
C1486       C  0.88463182  0.45582621  0.80671523     0.77700
C1487       C  0.58038536  0.96564614  0.77704672     0.78600
O1488       O  0.62783618  0.56408907  0.76942354    -0.57300
O1489       O  0.55960170  0.97158106  0.74817128    -0.49200
O1490       O  0.98476363  0.51224860  0.70978651    -0.75300
O1491       O  0.54549622  0.53768474  0.86744898    -0.59300
C1492       C  0.51334964  0.52554051  0.88886864     0.92400
C1493       C  0.51241450  0.51302032  0.69046349     0.93700
C1494       C  0.94819289  0.57570518  0.77266193     0.78000
O1495       O  0.91057732  0.47077437  0.83999426    -0.48600
O1496       O  0.95447329  0.06419832  0.73852127    -0.49800
O1497       O  0.95481348  0.94610936  0.77155646    -0.62600
O1498       O  0.52324917  0.58343519  0.80430044    -0.63700
C1499       C  0.66432433  0.83099282  0.49772477     0.32400
C1500       C  0.66922269  0.83534661  0.59688776     0.32400
C1501       C  0.64754679  0.85481141  0.52265033    -0.03800
C1502       C  0.64248228  0.78665325  0.52392912    -0.04600
C1503       C  0.70624796  0.85423574  0.51993416    -0.04500
C1504       C  0.65040066  0.85686571  0.57326041    -0.03800
C1505       C  0.64489784  0.78935016  0.57467607    -0.04600
C1506       C  0.70888971  0.85657962  0.57062841    -0.04500
C1507       C  0.63353517  0.87778436  0.58981767    -0.29900
N1508       N  0.62003019  0.88848004  0.55105088     0.16600
C1509       C  0.62842668  0.87475428  0.50954622    -0.29900
H1510       H  0.62140013  0.87895737  0.47284322     0.18600
C1511       C  0.62201271  0.74770269  0.59232470    -0.28900
N1512       N  0.60631459  0.71944970  0.55402883     0.15300
C1513       C  0.61857791  0.74268734  0.51195260    -0.28800
C1514       C  0.74847457  0.87809773  0.58316116    -0.29100
N1515       N  0.76968202  0.88854052  0.54139338     0.15900
H1516       H  0.76060460  0.88522247  0.61978299     0.18500
C1517       C  0.74410229  0.87402953  0.50283355    -0.29100
H1518       H  0.75253783  0.87767398  0.46499588     0.18500
H1519       H  0.60979043  0.72877391  0.47561504     0.18500
H1520       H  0.63099574  0.88458642  0.62748496     0.18600
H1521       H  0.61694609  0.73850040  0.63021597     0.18500
C1522       C  0.66676423  0.83769296  0.74788978     0.32400
C1523       C  0.66556721  0.83847172  0.84666109     0.32400
C1524       C  0.65035652  0.86285812  0.77094433    -0.03800
C1525       C  0.64162697  0.79237006  0.77188841    -0.04600
C1526       C  0.70721425  0.85828619  0.77362658    -0.04500
C1527       C  0.65020097  0.86299062  0.82161994    -0.03800
C1528       C  0.64085585  0.79331899  0.82251672    -0.04600
C1529       C  0.70647093  0.85853981  0.82421044    -0.04500
C1530       C  0.63616366  0.88716192  0.83692974    -0.31500
N1531       N  0.62706355  0.90173087  0.79735558     0.16600
C1532       C  0.63560505  0.88728054  0.75652473    -0.29900
H1533       H  0.63240043  0.89486825  0.71954738     0.18600
C1534       C  0.61619673  0.75110936  0.83810168    -0.28900
N1535       N  0.60265357  0.72403151  0.79869779     0.15300
C1536       C  0.61795675  0.74872510  0.75788111    -0.28800
C1537       C  0.74497242  0.87939845  0.84068288    -0.29100
N1538       N  0.76916809  0.89176269  0.80167261     0.15900
H1539       H  0.75485047  0.88590878  0.87827582     0.18500
C1540       C  0.74636189  0.87908176  0.76037557    -0.29100
H1541       H  0.75719763  0.88538485  0.72350614     0.18500
H1542       H  0.61172012  0.73600139  0.72097888     0.18500
H1543       H  0.63310579  0.89410758  0.87436153     0.18600
H1544       H  0.60872975  0.74069225  0.87539865     0.18500
C1545       C  0.66250627  0.83738045  0.94374970    -0.10900
C1546       C  0.66423895  0.83861931  0.89999175    -0.12500
C1547       C  0.66843663  0.83754274  0.69438425    -0.10900
C1548       C  0.67024289  0.83718347  0.65051240    -0.12500
C1549       C  0.57826196  0.64992765  0.77174242    -0.14100
C1550       C  0.57590372  0.67719075  0.80186528    -0.29200
H1551       H  0.60048918  0.66345230  0.74349709     0.15000
H1552       H  0.55594806  0.66379796  0.83257049     0.15500
C1553       C  0.81180780  0.91654081  0.80582048    -0.14100
C1554       C  0.83559558  0.92600442  0.76747972    -0.29200
H1555       H  0.82514597  0.92849486  0.84174161     0.15000
H1556       H  0.83121543  0.41816803  0.85243468     0.15500
C1557       C  0.61378889  0.93050160  0.80191439    -0.14100
C1558       C  0.59338629  0.93592029  0.76732728    -0.29200
H1559       H  0.61910085  0.94712451  0.83681889     0.15000
H1560       H  0.58611236  0.91857719  0.73269839     0.15500
C1561       C  0.58009153  0.67285294  0.55911120    -0.14100
C1562       C  0.58033040  0.64528976  0.52739668    -0.29200
H1563       H  0.56233622  0.66005908  0.59174223     0.15000
H1564       H  0.60054211  0.65836783  0.49696378     0.15500
C1565       C  0.83803599  0.92934667  0.57345428    -0.14100
C1566       C  0.81195304  0.91132338  0.53602328    -0.29200
H1567       H  0.82809766  0.92717599  0.61048288     0.15000
H1568       H  0.82320297  0.91562272  0.49924929     0.15500
C1569       C  0.60176822  0.91218909  0.55648081    -0.14100
C1570       C  0.58438617  0.91960771  0.51981483    -0.29200
H1571       H  0.60294890  0.92541096  0.59245577     0.15000
H1572       H  0.58241186  0.90677194  0.48349431     0.15500
C1573       C  0.92782892  0.62301665  0.80209233    -0.14100
C1574       C  0.93592556  0.60598735  0.76430262    -0.29200
H1575       H  0.93299370  0.61636543  0.83887411     0.15000
H1576       H  0.93128262  0.61194480  0.72709764     0.15500
C1577       C  0.91781073  0.85356331  0.77975297    -0.14100
C1578       C  0.94543150  0.88323657  0.81084896    -0.29200
H1579       H  0.91133724  0.86449034  0.74657983     0.15000
H1580       H  0.95439018  0.87240497  0.84184985     0.15500
C1581       C  0.68660324  0.60327375  0.81984247    -0.14100
C1582       C  0.71120439  0.61316010  0.78241527    -0.29200
H1583       H  0.69780420  0.61243727  0.85692037     0.15000
H1584       H  0.69871349  0.60329197  0.74580237     0.15500
C1585       C  0.92450216  0.59591760  0.01229132    -0.14100
C1586       C  0.91857557  0.61510732  0.04968320    -0.29200
H1587       H  0.91893000  0.60076507  0.47375123     0.15000
H1588       H  0.92675805  0.61152935  0.08624748     0.15500
C1589       C  0.91984845  0.85445034  0.55022826    -0.14100
C1590       C  0.94435044  0.88188864  0.51615658    -0.29200
H1591       H  0.91537576  0.86750199  0.58324314     0.15000
H1592       H  0.91311789  0.86525332  0.98869734     0.15500
C1593       C  0.68448745  0.59862585  0.56610669    -0.14100
C1594       C  0.70971526  0.60864342  0.52930809    -0.29200
H1595       H  0.69525716  0.61052825  0.60284190     0.15000
H1596       H  0.69642692  0.60721048  0.99065955     0.15500
C1597       C  0.85613444  0.69688921  0.93836187    -0.10900
C1598       C  0.85648799  0.69802001  0.89434726    -0.12500
C1599       C  0.85374761  0.69253762  0.64430367    -0.10900
C1600       C  0.85532610  0.69198941  0.68815880    -0.12500
loop_ 
_geom_bond_atom_site_label_1 
_geom_bond_atom_site_label_2 
_geom_bond_distance 
_geom_bond_site_symmetry_2 
_ccdc_geom_bond_type 
C1            C3   1.534       .  S
C1            C5   1.525       .  S
C1            C4   1.530       .  S
C1          C199   1.472       .  S
C2            C6   1.532       .  S
C2            C8   1.541       .  S
C2            C7   1.536       .  S
C2          C197   1.481       .  S
C3           C11   1.377       .  A
C3          C206   1.392       .  A
C4           C15   1.373       .  A
C4          C207   1.393       .  A
C5           C19   1.366       .  A
C5          C208   1.393       .  A
C6            C9   1.368       .  A
C6          C203   1.394       .  A
C7           C13   1.377       .  A
C7          C204   1.395       .  A
C8           C16   1.382       .  A
C8          C205   1.393       .  A
C9           N10   1.357       .  A
C9           H22   1.083       .  S
N10         C211   1.362       .  A
N10         C394   1.436       .  S
C11         N210   1.365       .  A
C11          H12   1.081       .  S
C13         N214   1.362       .  A
C13          H23   1.082       .  S
N14          C15   1.356       .  A
N14         C213   1.361       .  A
N14         C189   1.435       .  S
C15          H21   1.079       .  S
C16          N17   1.365       .  A
C16          H18   1.081       .  S
N17         C219   1.352       .  A
N17         C186   1.434       .  S
C19         N217   1.354       .  A
C19          H20   1.083       .  S
C24          C26   1.549       .  S
C24          C28   1.537       .  S
C24          C27   1.538       .  S
C24         C198   1.481       .  S
C25          C29   1.522       .  S
C25          C31   1.532       .  S
C25          C30   1.525       .  S
C25         C200   1.472       .  S
C26          C34   1.390       .  A
C26          C29   1.395       .  A
C27          C38   1.381       .  A
C27          C30   1.393       .  A
C28          C42   1.373       .  A
C28          C31   1.393       .  A
C29          C32   1.365       .  A
C30          C36   1.368       .  A
C31          C39   1.380       .  A
C32          N33   1.353       .  A
C32          H45   1.083       .  S
N33          C34   1.367       .  A
N33         C182   1.439       .  S
C34          H35   1.082       .  S
C36          N37   1.352       .  A
C36          H46   1.079       .  S
N37          C38   1.363       .  A
N37         C177   1.434       .  S
C38          H44   1.082       .  S
C39          N40   1.363       .  A
C39          H41   1.081       .  S
N40          C42   1.359       .  A
N40         C173   1.441       .  S
C42          H43   1.083       .  S
C47          O49   1.259       .  A
C47         O262   1.263       .  A
C47         C193   1.474       .  S
Tb48         O59   2.316       .  S
Tb48         O52   2.343       .  S
Tb48         O69   2.353   1_545  S
Tb48        O670   2.359   1_554  S
Tb48        O471   2.350   1_545  S
Tb48        O454   2.343   1_545  S
Tb48        O264   2.306   1_554  S
Tb48        O872   2.346       .  S
O49         Tb53   2.351       .  S
O50          C61   1.264       .  A
O50        Tb453   2.359       .  S
C51          O56   1.260       .  A
C51          O72   1.268       .  A
C51         C162   1.468       .  S
O52         C268   1.264       .  A
Tb53         O56   2.331       .  S
Tb53         O65   2.318   1_545  S
Tb53        O450   2.338   1_545  S
Tb53        O257   2.365   1_554  S
Tb53        O262   2.365       .  S
Tb53        O463   2.369   1_544  S
Tb53       O1255   2.336   1_445  S
O54         C460   1.261       .  A
O54        Tb448   2.352       .  S
O55          C58   1.264       .  A
O55       Tb1253   2.341       .  S
O57          C67   1.266       .  A
O57        Tb253   2.297       .  S
C58          O71   1.267       .  A
C58         C190   1.469       .  S
O59         C866   1.270       .  A
C60          O69   1.261       .  A
C60         O454   1.263       .  A
C60         C565   1.471       .  S
C61          O63   1.259   1_554  A
C61         C170   1.474       .  S
O62         C247   1.258       .  A
O62        Tb253   2.321       .  S
O63        Tb453   2.353   1_556  S
O64         C867   1.269       .  A
O64        Tb248   2.312       .  S
O65          C66   1.270   1_465  A
C66         O859   1.270       .  A
C66          C93   1.451       .  S
C67         O864   1.270   1_455  A
C67          C92   1.433       .  S
C68         O252   1.258       .  A
C68         O470   1.256       .  A
C68         C185   1.471       .  S
O70         C468   1.258       .  A
O70        Tb648   2.370       .  S
O71        Tb448   2.342       .  S
O72        Tb848   2.350   1_455  S
C73          O88   1.263       .  A
C73          O75   1.264       .  A
C73         C181   1.482       .  S
Tb74         O90   2.334       .  S
Tb74         O85   2.294       .  S
Tb74         O78   2.340       .  S
Tb74         O95   2.351   1_545  S
Tb74        O496   2.373       .  S
Tb74        O497   2.353   1_545  S
Tb74        O480   2.359   1_545  S
Tb74        O898   2.338       .  S
O75         Tb79   2.369       .  S
O76          C87   1.259       .  A
O76        Tb479   2.351       .  S
C77          O82   1.263       .  A
C77          O98   1.269       .  A
C77         C149   1.470       .  S
O78          C94   1.259       .  A
Tb79         O83   2.307       .  S
Tb79         O88   2.342       .  S
Tb79         O82   2.336       .  S
Tb79         O91   2.319       .  S
Tb79        O476   2.355   1_545  S
Tb79        O489   2.347   1_545  S
Tb79       O1281   2.326   1_445  S
O80         C486   1.260       .  A
O80        Tb474   2.348       .  S
O81          C84   1.264       .  A
O81       Tb1279   2.337       .  S
O83          C93   1.271   1_455  A
C84          O97   1.268       .  A
C84         C178   1.472       .  S
O85         C892   1.265       .  A
C86          O95   1.259       .  A
C86         O480   1.264       .  A
C86         C554   1.473       .  S
C87          O89   1.258       .  A
C87         C158   1.475       .  S
O89        Tb479   2.368       .  S
O90         C893   1.273       .  A
O91          C92   1.268       .  A
C92         O885   1.262   1_455  A
C93         O890   1.274       .  A
C94         O496   1.263       .  A
C94         C174   1.478       .  S
O96         C494   1.260       .  A
O96        Tb474   2.371       .  S
O97        Tb474   2.343       .  S
O98        Tb874   2.347   1_455  S
C99         C101   1.532   1_556  S
C99         C103   1.526   1_556  S
C99         C102   1.526   1_556  S
C99         C345   1.470       .  S
C100        C104   1.531       .  S
C100        C106   1.541       .  S
C100        C105   1.535       .  S
C100        C148   1.474       .  S
C101        C109   1.378       .  A
C101        C104   1.392       .  A
C102        C113   1.369   1_554  A
C102        C105   1.393       .  A
C103        C117   1.367       .  A
C103        C106   1.394       .  A
C104        C107   1.372       .  A
C105        C111   1.376       .  A
C106        C114   1.383       .  A
C107        N108   1.357       .  A
C107        H120   1.082       .  S
N108        C109   1.364       .  A
N108        C169   1.440       .  S
C109        H110   1.081   1_554  S
C111        N112   1.362       .  A
C111        H121   1.082       .  S
N112        C113   1.354   1_554  A
N112        C161   1.433       .  S
C113        H119   1.080       .  S
C114        N115   1.365       .  A
C114        H116   1.081       .  S
N115        C117   1.354       .  A
N115        C166   1.436       .  S
C117        H118   1.083   1_554  S
C122        C124   1.537       .  S
C122        C126   1.524       .  S
C122        C125   1.530       .  S
C122        C147   1.474       .  S
C123        C127   1.531       .  S
C123        C129   1.544       .  S
C123        C128   1.531       .  S
C123        C146   1.478       .  S
C124        C132   1.381       .  A
C124        C127   1.393       .  A
C125        C136   1.375       .  A
C125        C128   1.394       .  A
C126        C140   1.366       .  A
C126        C129   1.394       .  A
C127        C130   1.371       .  A
C128        C134   1.372       .  A
C129        C137   1.386       .  A
C130        N131   1.356       .  A
C130        H143   1.083       .  S
N131        C132   1.364       .  A
N131        C157   1.440       .  S
C132        H133   1.081       .  S
C134        N135   1.356       .  A
C134        H144   1.082       .  S
N135        C136   1.360       .  A
N135        C150   1.433       .  S
C136        H142   1.082       .  S
C137        N138   1.367       .  A
C137        H139   1.081       .  S
N138        C140   1.353       .  A
N138        C153   1.439       .  S
C140        H141   1.082       .  S
C145        C299   1.478       .  S
C145        C146   1.211       .  T
C147        C148   1.209       .  T
C149        C150   1.341       .  D
C149        H151   1.086       .  S
C150        H152   1.087       .  S
C153        C154   1.342       .  D
C153        H155   1.088       .  S
C154        C486   1.476       .  S
C154        H556   1.085       .  S
H156        C554   1.084       .  S
C157        C158   1.344       .  D
C157        H159   1.088       .  S
C158        H160   1.084       .  S
C161        C162   1.339       .  D
C161        H163   1.087   1_554  S
C162        H164   1.086       .  S
C165        C460   1.473       .  S
C165        C166   1.340       .  D
C165        H167   1.085       .  S
C166        H168   1.088       .  S
C169        C170   1.342       .  D
C169        H171   1.087       .  S
C170        H172   1.084   1_554  S
C173        C174   1.347       .  D
C173        H175   1.088       .  S
C174        H176   1.084       .  S
C177        C178   1.338       .  D
C177        H179   1.087       .  S
C178        H180   1.086       .  S
C181        C182   1.343       .  D
C181        H183   1.085       .  S
C182        H184   1.088       .  S
C185        C186   1.340       .  D
C185        H387   1.085       .  S
C186        H188   1.088       .  S
H187        C385   1.085   1_556  S
C189        C190   1.342       .  D
C189        H191   1.088       .  S
C190        H392   1.086   1_554  S
H192        C390   1.086       .  S
C193        C194   1.344       .  D
C193        H195   1.083       .  S
C194        N210   1.443       .  S
C194        H396   1.087   1_554  S
H196        C394   1.088       .  S
C197        C198   1.213       .  T
C199        C200   1.208       .  T
C201        C203   1.532       .  S
C201        C205   1.520       .  S
C201        C204   1.528       .  S
C201        C399   1.469       .  S
C202        C206   1.534   1_556  S
C202        C208   1.539   1_556  S
C202        C207   1.532   1_556  S
C202        C397   1.473       .  S
C203        C211   1.380       .  A
C204        C215   1.370       .  A
C205        C219   1.364       .  A
C206        C209   1.374   1_554  A
C207        C213   1.374       .  A
C208        C216   1.383       .  A
C209        N210   1.358   1_556  A
C209        H222   1.082       .  S
C211        H212   1.082       .  S
C213        H223   1.082   1_554  S
N214        C215   1.354       .  A
N214        C389   1.434       .  S
C215        H221   1.080       .  S
C216        N217   1.365       .  A
C216        H218   1.081   1_554  S
N217        C386   1.438       .  S
C219        H220   1.083       .  S
C224        C226   1.540       .  S
C224        C228   1.533       .  S
C224        C227   1.542       .  S
C224        C398   1.472       .  S
C225        C229   1.524       .  S
C225        C231   1.537       .  S
C225        C230   1.527       .  S
C225        C400   1.468       .  S
C226        C234   1.384       .  A
C226        C229   1.390       .  A
C227        C238   1.384       .  A
C227        C230   1.393       .  A
C228        C242   1.371       .  A
C228        C231   1.393       .  A
C229        C232   1.367       .  A
C230        C236   1.369       .  A
C231        C239   1.383       .  A
C232        N233   1.353       .  A
C232        H245   1.083       .  S
N233        C234   1.365       .  A
N233        C382   1.437       .  S
C234        H235   1.081       .  S
C236        N237   1.354       .  A
C236        H246   1.080       .  S
N237        C238   1.365       .  A
N237        C377   1.440       .  S
C238        H244   1.082       .  S
C239        N240   1.364       .  A
C239        H241   1.082       .  S
N240        C242   1.357       .  A
N240        C373   1.440       .  S
C242        H243   1.082       .  S
C247        O249   1.266       .  A
C247        C393   1.476       .  S
Tb248       O470   2.366       .  S
Tb248       O671   2.338   1_545  S
Tb248       O654   2.344   1_545  S
Tb248       O259   2.324       .  S
Tb248       O252   2.344       .  S
Tb248      O1072   2.352       .  S
Tb248       O269   2.373   1_545  S
O249       Tb253   2.378       .  S
O250        C261   1.265       .  A
O250       Tb653   2.353       .  S
C251        O256   1.261       .  A
C251        O272   1.271       .  A
C251        C362   1.465       .  S
Tb253       O650   2.353   1_545  S
Tb253       O256   2.328       .  S
Tb253       O663   2.344   1_545  S
Tb253       O265   2.352   1_545  S
Tb253      O1455   2.322   1_445  S
O254        C660   1.258       .  A
O254       Tb648   2.341       .  S
O255        C258   1.268       .  A
O255      Tb1453   2.343       .  S
O257        C267   1.275       .  A
C258        O271   1.264       .  A
C258        C390   1.470       .  S
O259       C1066   1.270       .  A
C260        O654   1.259       .  A
C260        O269   1.261       .  A
C260        C765   1.478       .  S
C261        O263   1.259       .  A
C261        C370   1.471       .  S
O263       Tb653   2.350       .  S
O264       C1067   1.268       .  A
O265        C266   1.269   1_565  A
C266       O1059   1.265   1_455  A
C266        C293   1.458       .  S
C267       O1064   1.266   1_455  A
C267        C292   1.461       .  S
C268        O670   1.262   1_554  A
C268        C385   1.475       .  S
O270        C668   1.264   1_556  A
O270       Tb448   2.387   1_556  S
O271       Tb648   2.341       .  S
O272      Tb1048   2.349   1_455  S
C273        O288   1.260       .  A
C273        O275   1.256       .  A
C273        C381   1.474       .  S
Tb274       O696   2.372       .  S
Tb274       O697   2.350   1_545  S
Tb274       O680   2.348   1_545  S
Tb274       O290   2.324       .  S
Tb274       O285   2.321       .  S
Tb274       O278   2.347       .  S
Tb274      O1098   2.340       .  S
Tb274       O295   2.370   1_545  S
O275       Tb279   2.362       .  S
O276        C287   1.257       .  A
O276       Tb679   2.337       .  S
C277        O282   1.264       .  A
C277        O298   1.271       .  A
C277        C349   1.472       .  S
O278        C294   1.259       .  A
Tb279       O676   2.337   1_545  S
Tb279       O283   2.356   1_545  S
Tb279       O288   2.353       .  S
Tb279       O282   2.332       .  S
Tb279       O689   2.375   1_545  S
Tb279       O291   2.356       .  S
Tb279      O1481   2.329   1_545  S
O280        C686   1.260       .  A
O280       Tb674   2.352       .  S
O281        C284   1.264       .  A
O281      Tb1479   2.340       .  S
O283        C293   1.272   1_565  A
C284        O297   1.272       .  A
C284        C378   1.478       .  S
O285       C1092   1.271       .  A
C286        O680   1.258       .  A
C286        O295   1.259       .  A
C286        C754   1.474       .  S
C287        O289   1.259       .  A
C287        C358   1.471       .  S
O289       Tb679   2.369       .  S
O290       C1093   1.271       .  A
O291        C292   1.274       .  A
C292       O1085   1.272   1_455  A
C293       O1090   1.267   1_455  A
C294        O696   1.262       .  A
C294        C374   1.479       .  S
O296        C694   1.261       .  A
O296       Tb674   2.366       .  S
O297       Tb674   2.360       .  S
O298      Tb1074   2.359   1_455  S
C299        C301   1.538       .  S
C299        C303   1.526       .  S
C299        C302   1.534       .  S
C300        C304   1.525       .  S
C300        C306   1.542       .  S
C300        C305   1.523       .  S
C300        C348   1.472       .  S
C301        C309   1.379       .  A
C301        C304   1.393       .  A
C302        C313   1.376       .  A
C302        C305   1.393       .  A
C303        C317   1.364       .  A
C303        C306   1.396       .  A
C304        C307   1.368       .  A
C305        C311   1.368       .  A
C306        C314   1.386       .  A
C307        N308   1.354       .  A
C307        H320   1.083       .  S
N308        C309   1.365       .  A
N308        C369   1.437       .  S
C309        H310   1.081       .  S
C311        N312   1.352       .  A
C311        H321   1.083       .  S
N312        C313   1.362       .  A
N312        C361   1.430       .  S
C313        H319   1.082       .  S
C314        N315   1.366       .  A
C314        H316   1.081       .  S
N315        C317   1.353       .  A
N315        C366   1.437       .  S
C317        H318   1.083       .  S
C322        C324   1.538       .  S
C322        C326   1.526       .  S
C322        C325   1.536       .  S
C322        C347   1.471       .  S
C323        C327   1.523       .  S
C323        C329   1.536       .  S
C323        C328   1.531       .  S
C323        C346   1.469       .  S
C324        C332   1.381       .  A
C324        C327   1.393       .  A
C325        C336   1.378       .  A
C325        C328   1.395       .  A
C326        C340   1.368       .  A
C326        C329   1.390       .  A
C327        C330   1.366       .  A
C328        C334   1.372       .  A
C329        C337   1.383       .  A
C330        N331   1.353       .  A
C330        H343   1.083       .  S
N331        C332   1.364       .  A
N331        C357   1.433       .  S
C332        H333   1.082       .  S
C334        N335   1.355       .  A
C334        H344   1.080       .  S
N335        C336   1.362       .  A
N335        C350   1.436       .  S
C336        H342   1.082       .  S
C337        N338   1.366       .  A
C337        H339   1.081       .  S
N338        C340   1.354       .  A
N338        C353   1.440       .  S
C340        H341   1.083       .  S
C345        C346   1.206       .  T
C347        C348   1.208       .  T
C349        C350   1.339       .  D
C349        H351   1.087       .  S
C350        H352   1.087       .  S
C353        C354   1.343       .  D
C353        H355   1.088       .  S
C354        C686   1.477       .  S
C354        H756   1.084       .  S
H356        C754   1.084       .  S
C357        C358   1.341       .  D
C357        H359   1.088       .  S
C358        H360   1.085       .  S
C361        C362   1.334       .  D
C361        H363   1.087       .  S
C362        H364   1.087       .  S
C365        C660   1.477       .  S
C365        C366   1.342       .  D
C365        H367   1.085       .  S
C366        H368   1.088       .  S
C369        C370   1.340       .  D
C369        H371   1.088       .  S
C370        H372   1.084       .  S
C373        C374   1.345       .  D
C373        H375   1.088       .  S
C374        H376   1.085       .  S
C377        C378   1.340       .  D
C377        H379   1.087       .  S
C378        H380   1.086       .  S
C381        C382   1.340       .  D
C381        H383   1.085       .  S
C382        H384   1.088       .  S
C385        C386   1.341       .  D
C386        H388   1.088       .  S
C389        C390   1.339       .  D
C389        H391   1.087       .  S
C393        C394   1.346       .  D
C393        H395   1.085       .  S
C397        C398   1.208       .  T
C399        C400   1.206       .  T
C401        C403   1.532       .  S
C401        C405   1.526       .  S
C401        C404   1.526       .  S
C401        C599   1.475       .  S
C402        C406   1.532       .  S
C402        C408   1.541       .  S
C402        C407   1.540       .  S
C402        C597   1.475       .  S
C403        C411   1.376       .  A
C403        C606   1.392       .  A
C404        C415   1.372       .  A
C404        C607   1.395       .  A
C405        C419   1.364       .  A
C405        C608   1.393       .  A
C406        C603   1.392       .  A
C406        C409   1.373       .  A
C407        C604   1.395       .  A
C407        C413   1.381       .  A
C408        C605   1.392       .  A
C408        C416   1.382       .  A
C409        N410   1.357       .  A
C409        H422   1.082       .  S
N410        C611   1.365       .  A
N410        C794   1.441       .  S
C411        N610   1.364       .  A
C411        H412   1.081       .  S
C413        N614   1.363       .  A
C413        H423   1.082       .  S
N414        C613   1.361       .  A
N414        C415   1.355       .  A
N414        C589   1.432       .  S
C415        H421   1.082       .  S
C416        N417   1.365       .  A
C416        H418   1.081       .  S
N417        C619   1.353       .  A
N417        C586   1.435       .  S
C419        N617   1.354       .  A
C419        H420   1.083       .  S
C424        C426   1.540       .  S
C424        C428   1.535       .  S
C424        C427   1.533       .  S
C424        C598   1.476       .  S
C425        C429   1.526       .  S
C425        C431   1.532       .  S
C425        C430   1.524       .  S
C425        C600   1.474       .  S
C426        C434   1.383       .  A
C426        C429   1.394       .  A
C427        C438   1.377       .  A
C427        C430   1.393       .  A
C428        C442   1.372       .  A
C428        C431   1.395       .  A
C429        C432   1.366       .  A
C430        C436   1.368       .  A
C431        C439   1.377       .  A
C432        N433   1.354       .  A
C432        H445   1.083       .  S
N433        C434   1.365       .  A
N433        C582   1.437       .  S
C434        H435   1.081       .  S
C436        N437   1.353       .  A
C436        H446   1.082       .  S
N437        C438   1.360       .  A
N437        C577   1.430       .  S
C438        H444   1.083       .  S
C439        N440   1.363       .  A
C439        H441   1.081       .  S
N440        C442   1.358       .  A
N440        C573   1.439       .  S
C442        H443   1.083       .  S
C447        O662   1.264       .  A
C447        O449   1.260       .  A
C447        C593   1.471       .  S
Tb448       O664   2.333   1_554  S
Tb448       O459   2.297       .  S
Tb448       O452   2.331       .  S
Tb448      O1272   2.333       .  S
Tb448       O469   2.361       .  S
O449       Tb453   2.350       .  S
O450        C461   1.260       .  A
C451        O456   1.263       .  A
C451        O472   1.268       .  A
C451        C562   1.468       .  S
O452        C668   1.258       .  A
Tb453       O657   2.349   1_554  S
Tb453       O662   2.357       .  S
Tb453       O456   2.338       .  S
Tb453       O465   2.351       .  S
Tb453       O855   2.338       .  S
O455        C458   1.262       .  A
O455       Tb853   2.329   1_565  S
O457        C467   1.272       .  A
O457       Tb653   2.343       .  S
C458        O471   1.269       .  A
C458        C590   1.464       .  S
O459       C1266   1.265       .  A
C460        O469   1.258       .  A
C461        O463   1.264   1_554  A
C461        C570   1.477       .  S
O462        C647   1.264       .  A
O462       Tb653   2.359       .  S
O464       C1267   1.269       .  A
O464       Tb648   2.313       .  S
O465        C466   1.274       .  A
C466       O1259   1.271   1_455  A
C466        C493   1.455       .  S
C467       O1264   1.271   1_455  A
C467        C492   1.450       .  S
C468        O652   1.257       .  A
C468        C585   1.472       .  S
O472      Tb1248   2.347   1_455  S
C473        O488   1.258       .  A
C473        O475   1.257       .  A
C473        C581   1.473       .  S
Tb474       O490   2.312       .  S
Tb474       O485   2.302       .  S
Tb474       O478   2.343       .  S
Tb474      O1298   2.344       .  S
Tb474       O495   2.366       .  S
O475       Tb479   2.366       .  S
O476        C487   1.260       .  A
C477        O482   1.266       .  A
C477        O498   1.270       .  A
C477        C549   1.475       .  S
O478        C494   1.257       .  A
Tb479       O483   2.347       .  S
Tb479       O488   2.346       .  S
Tb479       O482   2.342       .  S
Tb479       O491   2.340       .  S
Tb479       O881   2.338       .  S
O481        C484   1.265       .  A
O481       Tb879   2.326   1_565  S
O483        C493   1.272       .  A
C484        O497   1.267       .  A
C484        C578   1.470       .  S
O485       C1292   1.266       .  A
C486        O495   1.260       .  A
C487        O489   1.263       .  A
C487        C558   1.471       .  S
O490       C1293   1.270       .  A
O491        C492   1.271       .  A
C492       O1285   1.268   1_455  A
C493       O1290   1.269   1_455  A
C494        C574   1.473       .  S
O498      Tb1274   2.353   1_455  S
C499        C501   1.538   1_556  S
C499        C503   1.528   1_556  S
C499        C502   1.530   1_556  S
C499        C745   1.471       .  S
C500        C504   1.533       .  S
C500        C506   1.535       .  S
C500        C505   1.528       .  S
C500        C548   1.474       .  S
C501        C509   1.382   1_554  A
C501        C504   1.394       .  A
C502        C513   1.373   1_554  A
C502        C505   1.392       .  A
C503        C517   1.369   1_554  A
C503        C506   1.392       .  A
C504        C507   1.369       .  A
C505        C511   1.373       .  A
C506        C514   1.379       .  A
C507        N508   1.356       .  A
C507        H520   1.079       .  S
N508        C509   1.364   1_554  A
N508        C569   1.440       .  S
C509        H510   1.081       .  S
C511        N512   1.359       .  A
C511        H521   1.082       .  S
N512        C513   1.356   1_554  A
N512        C561   1.433       .  S
C513        H519   1.080       .  S
C514        N515   1.364       .  A
C514        H516   1.081       .  S
N515        C517   1.355   1_554  A
N515        C566   1.437       .  S
C517        H518   1.083       .  S
C522        C524   1.528       .  S
C522        C526   1.526       .  S
C522        C525   1.534       .  S
C522        C547   1.474       .  S
C523        C527   1.535       .  S
C523        C529   1.539       .  S
C523        C528   1.533       .  S
C523        C546   1.476       .  S
C524        C532   1.368       .  A
C524        C527   1.393       .  A
C525        C536   1.378       .  A
C525        C528   1.395       .  A
C526        C540   1.371       .  A
C526        C529   1.391       .  A
C527        C530   1.379       .  A
C528        C534   1.372       .  A
C529        C537   1.381       .  A
C530        N531   1.364       .  A
C530        H543   1.082       .  S
N531        C532   1.354       .  A
N531        C557   1.436       .  S
C532        H533   1.079       .  S
C534        N535   1.355       .  A
C534        H544   1.078       .  S
N535        C536   1.362       .  A
N535        C550   1.437       .  S
C536        H542   1.082       .  S
C537        N538   1.366       .  A
C537        H539   1.081       .  S
N538        C540   1.356       .  A
N538        C553   1.441       .  S
C540        H541   1.083       .  S
C545        C699   1.477       .  S
C545        C546   1.210       .  T
C547        C548   1.209       .  T
C549        C550   1.341       .  D
C549        H551   1.086       .  S
C550        H552   1.087       .  S
C553        C554   1.342       .  D
C553        H555   1.088       .  S
C557        C558   1.340       .  D
C557        H559   1.088       .  S
C558        H560   1.085       .  S
C561        C562   1.341       .  D
C561        H563   1.087   1_554  S
C562        H564   1.086       .  S
C565        C566   1.341       .  D
C565        H567   1.084       .  S
C566        H568   1.088   1_554  S
C569        C570   1.346       .  D
C569        H571   1.088       .  S
C570        H572   1.084   1_554  S
C573        C574   1.345       .  D
C573        H575   1.088       .  S
C574        H576   1.084       .  S
C577        C578   1.340       .  D
C577        H579   1.087       .  S
C578        H580   1.086       .  S
C581        C582   1.341       .  D
C581        H583   1.085       .  S
C582        H584   1.088       .  S
C585        C586   1.341       .  D
C585        H787   1.085       .  S
C586        H588   1.088       .  S
H587        C785   1.085   1_556  S
C589        C590   1.338       .  D
C589        H591   1.087       .  S
C590        H792   1.086   1_554  S
H592        C790   1.086       .  S
C593        C594   1.343       .  D
C593        H595   1.083       .  S
C594        N610   1.441       .  S
C594        H796   1.088   1_554  S
H596        C794   1.087       .  S
C597        C598   1.210       .  T
C599        C600   1.209       .  T
C601        C603   1.534       .  S
C601        C605   1.520       .  S
C601        C604   1.526       .  S
C601        C799   1.469       .  S
C602        C606   1.533   1_556  S
C602        C608   1.542   1_556  S
C602        C607   1.536   1_556  S
C602        C797   1.475       .  S
C603        C611   1.378       .  A
C604        C615   1.368       .  A
C605        C619   1.365       .  A
C606        C609   1.373   1_554  A
C607        C613   1.374       .  A
C608        C616   1.388   1_554  A
C609        N610   1.357   1_556  A
C609        H622   1.082       .  S
C611        H612   1.081       .  S
C613        H623   1.083   1_554  S
N614        C615   1.353       .  A
N614        C789   1.433       .  S
C615        H621   1.081       .  S
C616        N617   1.365   1_556  A
C616        H618   1.081       .  S
N617        C786   1.439       .  S
C619        H620   1.083       .  S
C624        C626   1.541       .  S
C624        C628   1.533       .  S
C624        C627   1.537       .  S
C624        C798   1.475       .  S
C625        C629   1.521       .  S
C625        C631   1.532       .  S
C625        C630   1.527       .  S
C625        C800   1.469       .  S
C626        C634   1.381       .  A
C626        C629   1.392       .  A
C627        C638   1.380       .  A
C627        C630   1.394       .  A
C628        C642   1.372       .  A
C628        C631   1.392       .  A
C629        C632   1.366       .  A
C630        C636   1.369       .  A
C631        C639   1.378       .  A
C632        N633   1.352       .  A
C632        H645   1.083       .  S
N633        C634   1.365       .  A
N633        C782   1.434       .  S
C634        H635   1.081       .  S
C636        N637   1.354       .  A
C636        H646   1.081       .  S
N637        C638   1.363       .  A
N637        C777   1.435       .  S
C638        H644   1.082       .  S
C639        N640   1.363       .  A
C639        H641   1.081       .  S
N640        C642   1.358       .  A
N640        C773   1.440       .  S
C642        H643   1.082       .  S
C647        O649   1.260       .  A
C647        C793   1.473       .  S
Tb648       O659   2.311       .  S
Tb648       O652   2.341       .  S
Tb648      O1472   2.350       .  S
Tb648       O669   2.377       .  S
O649       Tb653   2.349       .  S
O650        C661   1.262       .  A
C651        O656   1.262       .  A
C651        O672   1.267       .  A
C651        C762   1.466       .  S
Tb653       O656   2.332       .  S
Tb653       O665   2.354       .  S
Tb653      O1055   2.341       .  S
O655        C658   1.267       .  A
O655      Tb1053   2.339   1_565  S
O657        C667   1.274       .  A
C658        O671   1.263       .  A
C658        C790   1.473       .  S
O659       C1466   1.268       .  A
C660        O669   1.260       .  A
C661        O663   1.256       .  A
C661        C770   1.464       .  S
O664       C1467   1.272       .  A
O665        C666   1.276       .  A
C666       O1459   1.272   1_455  A
C666        C693   1.457       .  S
C667       O1464   1.272   1_455  A
C667        C692   1.455       .  S
C668        C785   1.483       .  S
O672      Tb1448   2.344   1_455  S
C673        O688   1.258       .  A
C673        O675   1.258       .  A
C673        C781   1.468       .  S
Tb674       O690   2.314       .  S
Tb674       O685   2.304       .  S
Tb674       O678   2.348       .  S
Tb674      O1498   2.368       .  S
Tb674       O695   2.368       .  S
O675       Tb679   2.363       .  S
O676        C687   1.257       .  A
C677        O682   1.260       .  A
C677        O698   1.267       .  A
C677        C749   1.469       .  S
O678        C694   1.259       .  A
Tb679       O683   2.341       .  S
Tb679       O688   2.342       .  S
Tb679       O682   2.329       .  S
Tb679       O691   2.351       .  S
Tb679      O1081   2.329       .  S
O681        C684   1.264       .  A
O681      Tb1079   2.340   1_565  S
O683        C693   1.272       .  A
C684        O697   1.270       .  A
C684        C778   1.474       .  S
O685       C1492   1.265       .  A
C686        O695   1.259       .  A
C687        O689   1.258       .  A
C687        C758   1.475       .  S
O690       C1493   1.269       .  A
O691        C692   1.273       .  A
C692       O1485   1.269   1_455  A
C693       O1490   1.271   1_455  A
C694        C774   1.474       .  S
O698      Tb1474   2.343   1_455  S
C699        C701   1.529       .  S
C699        C703   1.532       .  S
C699        C702   1.530       .  S
C700        C704   1.528       .  S
C700        C706   1.540       .  S
C700        C705   1.529       .  S
C700        C748   1.475       .  S
C701        C709   1.374       .  A
C701        C704   1.392       .  A
C702        C713   1.372       .  A
C702        C705   1.394       .  A
C703        C717   1.369       .  A
C703        C706   1.396       .  A
C704        C707   1.371       .  A
C705        C711   1.371       .  A
C706        C714   1.383       .  A
C707        N708   1.355       .  A
C707        H720   1.082       .  S
N708        C709   1.363       .  A
N708        C769   1.435       .  S
C709        H710   1.081       .  S
C711        N712   1.359       .  A
C711        H721   1.082       .  S
N712        C713   1.355       .  A
N712        C761   1.432       .  S
C713        H719   1.078       .  S
C714        N715   1.365       .  A
C714        H716   1.081       .  S
N715        C717   1.357       .  A
N715        C766   1.440       .  S
C717        H718   1.083       .  S
C722        C724   1.542       .  S
C722        C726   1.532       .  S
C722        C725   1.538       .  S
C722        C747   1.475       .  S
C723        C727   1.520       .  S
C723        C729   1.532       .  S
C723        C728   1.525       .  S
C723        C746   1.471       .  S
C724        C732   1.385       .  A
C724        C727   1.393       .  A
C725        C736   1.379       .  A
C725        C728   1.395       .  A
C726        C740   1.371       .  A
C726        C729   1.392       .  A
C727        C730   1.363       .  A
C728        C734   1.367       .  A
C729        C737   1.378       .  A
C730        N731   1.352       .  A
C730        H743   1.083       .  S
N731        C732   1.365       .  A
N731        C757   1.436       .  S
C732        H733   1.081       .  S
C734        N735   1.352       .  A
C734        H744   1.080       .  S
N735        C736   1.363       .  A
N735        C750   1.432       .  S
C736        H742   1.082       .  S
C737        N738   1.363       .  A
C737        H739   1.081       .  S
N738        C740   1.357       .  A
N738        C753   1.439       .  S
C740        H741   1.083       .  S
C745        C746   1.207       .  T
C747        C748   1.210       .  T
C749        C750   1.337       .  D
C749        H751   1.086       .  S
C750        H752   1.087       .  S
C753        C754   1.344       .  D
C753        H755   1.088       .  S
C757        C758   1.342       .  D
C757        H759   1.088       .  S
C758        H760   1.085       .  S
C761        C762   1.340       .  D
C761        H763   1.087       .  S
C762        H764   1.086       .  S
C765        C766   1.345       .  D
C765        H767   1.084       .  S
C766        H768   1.088       .  S
C769        C770   1.338       .  D
C769        H771   1.088       .  S
C770        H772   1.084       .  S
C773        C774   1.345       .  D
C773        H775   1.088       .  S
C774        H776   1.084       .  S
C777        C778   1.339       .  D
C777        H779   1.087       .  S
C778        H780   1.086       .  S
C781        C782   1.340       .  D
C781        H783   1.085       .  S
C782        H784   1.088       .  S
C785        C786   1.346       .  D
C786        H788   1.088       .  S
C789        C790   1.339       .  D
C789        H791   1.087       .  S
C793        C794   1.342       .  D
C793        H795   1.084       .  S
C797        C798   1.210       .  T
C799        C800   1.206       .  T
C801        C803   1.529       .  S
C801        C805   1.527       .  S
C801        C804   1.524       .  S
C801        C999   1.467       .  S
C802        C806   1.533       .  S
C802        C808   1.543       .  S
C802        C807   1.537       .  S
C802        C997   1.478       .  S
C803        C811   1.373       .  A
C803       C1006   1.393       .  A
C804        C815   1.370       .  A
C804       C1007   1.392       .  A
C805        C819   1.370       .  A
C805       C1008   1.393       .  A
C806       C1003   1.393       .  A
C806        C809   1.370       .  A
C807       C1004   1.395       .  A
C807        C813   1.378       .  A
C808       C1005   1.393       .  A
C808        C816   1.388       .  A
C809        N810   1.357       .  A
C809        H822   1.083       .  S
N810       C1011   1.364       .  A
N810       C1194   1.439       .  S
C811       N1010   1.363       .  A
C811        H812   1.081       .  S
C813       N1014   1.362       .  A
C813        H823   1.082       .  S
N814       C1013   1.361       .  A
N814        C815   1.354       .  A
N814        C989   1.432       .  S
C815        H821   1.080       .  S
C816        N817   1.366       .  A
C816        H818   1.081       .  S
N817       C1019   1.354       .  A
N817        C986   1.440       .  S
C819       N1017   1.356       .  A
C819        H820   1.083       .  S
C824        C826   1.546       .  S
C824        C828   1.533       .  S
C824        C827   1.538       .  S
C824        C998   1.478       .  S
C825        C829   1.520       .  S
C825        C831   1.526       .  S
C825        C830   1.525       .  S
C825       C1000   1.467       .  S
C826        C834   1.386       .  A
C826        C829   1.394       .  A
C827        C838   1.380       .  A
C827        C830   1.394       .  A
C828        C842   1.370       .  A
C828        C831   1.391       .  A
C829        C832   1.364       .  A
C830        C836   1.367       .  A
C831        C839   1.375       .  A
C832        N833   1.352       .  A
C832        H845   1.083       .  S
N833        C834   1.366       .  A
N833        C982   1.436       .  S
C834        H835   1.081       .  S
C836        N837   1.353       .  A
C836        H846   1.080       .  S
N837        C838   1.363       .  A
N837        C977   1.433       .  S
C838        H844   1.082       .  S
C839        N840   1.361       .  A
C839        H841   1.081       .  S
N840        C842   1.357       .  A
N840        C973   1.436       .  S
C842        H843   1.082       .  S
C847       O1062   1.263       .  A
C847        O849   1.259       .  A
C847        C993   1.468       .  S
Tb848      O1470   2.358   1_554  S
Tb848      O1271   2.343   1_545  S
Tb848      O1254   2.327   1_545  S
Tb848      O1064   2.305   1_554  S
Tb848       O859   2.332       .  S
Tb848       O852   2.352       .  S
Tb848       O869   2.377   1_545  S
O849       Tb853   2.348       .  S
O850        C861   1.262       .  A
O850      Tb1253   2.356       .  S
C851        O856   1.263       .  A
C851        O872   1.268       .  A
C851        C962   1.466       .  S
O852       C1068   1.260       .  A
Tb853      O1250   2.365   1_545  S
Tb853      O1057   2.342   1_554  S
Tb853      O1062   2.352       .  S
Tb853       O856   2.338       .  S
Tb853      O1263   2.349   1_544  S
Tb853       O865   2.335   1_545  S
O854       C1260   1.265       .  A
O854      Tb1248   2.355       .  S
O855        C858   1.264   1_455  A
O857        C867   1.271       .  A
O857      Tb1053   2.327       .  S
C858        O871   1.267       .  A
C858        C990   1.466       .  S
C860       O1254   1.260       .  A
C860        O869   1.263       .  A
C860       C1365   1.478       .  S
C861        O863   1.262   1_554  A
C861        C970   1.478       .  S
O862       C1047   1.258       .  A
O862      Tb1053   2.346       .  S
O863      Tb1253   2.362   1_556  S
O864      Tb1048   2.325       .  S
O865        C866   1.271   1_565  A
C866        C893   1.444       .  S
C867        C892   1.441       .  S
C868       O1052   1.261       .  A
C868       O1270   1.263       .  A
C868        C985   1.481       .  S
O870       C1268   1.262       .  A
O870      Tb1448   2.359       .  S
O871      Tb1248   2.341       .  S
C873        O888   1.264       .  A
C873        O875   1.265       .  A
C873        C981   1.475       .  S
Tb874      O1296   2.367       .  S
Tb874      O1297   2.345   1_545  S
Tb874      O1280   2.357   1_545  S
Tb874       O890   2.347       .  S
Tb874       O885   2.286       .  S
Tb874       O878   2.330       .  S
Tb874       O895   2.352   1_545  S
O875       Tb879   2.360       .  S
O876        C887   1.258       .  A
O876      Tb1279   2.339       .  S
C877        O882   1.264       .  A
C877        O898   1.268       .  A
C877        C949   1.470       .  S
O878        C894   1.258       .  A
Tb879      O1276   2.357   1_545  S
Tb879       O883   2.314   1_545  S
Tb879       O888   2.334       .  S
Tb879       O882   2.342       .  S
Tb879      O1289   2.347   1_545  S
Tb879       O891   2.321       .  S
O880       C1286   1.261       .  A
O880      Tb1274   2.352       .  S
O881        C884   1.263   1_455  A
O883        C893   1.271   1_565  A
C884        O897   1.269       .  A
C884        C978   1.472       .  S
C886       O1280   1.264       .  A
C886        O895   1.257       .  A
C886       C1354   1.472       .  S
C887        O889   1.258       .  A
C887        C958   1.471       .  S
O889      Tb1279   2.367       .  S
O891        C892   1.267       .  A
C894       O1296   1.262       .  A
C894        C974   1.471       .  S
O896       C1294   1.260       .  A
O896      Tb1274   2.360       .  S
O897      Tb1274   2.347       .  S
C899        C901   1.536   1_556  S
C899        C903   1.527   1_556  S
C899        C902   1.527   1_556  S
C899       C1145   1.472       .  S
C900        C904   1.534       .  S
C900        C906   1.543       .  S
C900        C905   1.532       .  S
C900        C948   1.477       .  S
C901        C909   1.380   1_554  A
C901        C904   1.393       .  A
C902        C913   1.372   1_554  A
C902        C905   1.392       .  A
C903        C917   1.369   1_554  A
C903        C906   1.394       .  A
C904        C907   1.373       .  A
C905        C911   1.373       .  A
C906        C914   1.385       .  A
C907        N908   1.358       .  A
C907        H920   1.082       .  S
N908        C909   1.364   1_554  A
N908        C969   1.443       .  S
C909        H910   1.081       .  S
C911        N912   1.360       .  A
C911        H921   1.082       .  S
N912        C913   1.356   1_554  A
N912        C961   1.433       .  S
C913        H919   1.083       .  S
C914        N915   1.367       .  A
C914        H916   1.081       .  S
N915        C917   1.355   1_554  A
N915        C966   1.442       .  S
C917        H918   1.083       .  S
C922        C924   1.539       .  S
C922        C926   1.532       .  S
C922        C925   1.538       .  S
C922        C947   1.477       .  S
C923        C927   1.523       .  S
C923        C929   1.537       .  S
C923        C928   1.523       .  S
C923        C946   1.474       .  S
C924        C932   1.381       .  A
C924        C927   1.393       .  A
C925        C936   1.380       .  A
C925        C928   1.395       .  A
C926        C940   1.371       .  A
C926        C929   1.394       .  A
C927        C930   1.366       .  A
C928        C934   1.366       .  A
C929        C937   1.380       .  A
C930        N931   1.353       .  A
C930        H943   1.082       .  S
N931        C932   1.364       .  A
N931        C957   1.435       .  S
C932        H933   1.082       .  S
C934        N935   1.352       .  A
C934        H944   1.083       .  S
N935        C936   1.362       .  A
N935        C950   1.430       .  S
C936        H942   1.082       .  S
C937        N938   1.365       .  A
C937        H939   1.081       .  S
N938        C940   1.357       .  A
N938        C953   1.441       .  S
C940        H941   1.083       .  S
C945       C1099   1.473       .  S
C945        C946   1.209       .  T
C947        C948   1.211       .  T
C949        C950   1.337       .  D
C949        H951   1.086       .  S
C950        H952   1.087       .  S
C953        C954   1.344       .  D
C953        H955   1.088       .  S
C954       C1286   1.475       .  S
C954       H1356   1.084       .  S
H956       C1354   1.085       .  S
C957        C958   1.341       .  D
C957        H959   1.088       .  S
C958        H960   1.085       .  S
C961        C962   1.340       .  D
C961        H963   1.087   1_554  S
C962        H964   1.086       .  S
C965       C1260   1.477       .  S
C965        C966   1.342       .  D
C965        H967   1.084       .  S
C966        H968   1.088   1_554  S
C969        C970   1.346       .  D
C969        H971   1.087       .  S
C970        H972   1.084   1_554  S
C973        C974   1.345       .  D
C973        H975   1.088       .  S
C974        H976   1.084       .  S
C977        C978   1.339       .  D
C977        H979   1.087       .  S
C978        H980   1.086       .  S
C981        C982   1.341       .  D
C981        H983   1.085       .  S
C982        H984   1.088       .  S
C985        C986   1.344       .  D
C985       H1187   1.085       .  S
C986        H988   1.088       .  S
H987       C1185   1.084   1_556  S
C989        C990   1.339       .  D
C989        H991   1.087       .  S
C990       H1192   1.086   1_554  S
H992       C1190   1.086       .  S
C993        C994   1.342       .  D
C993        H995   1.083       .  S
C994       N1010   1.439       .  S
C994       H1196   1.087   1_554  S
H996       C1194   1.088       .  S
C997        C998   1.212       .  T
C999       C1000   1.205       .  T
C1001      C1003   1.534       .  S
C1001      C1005   1.527       .  S
C1001      C1004   1.528       .  S
C1001      C1199   1.474       .  S
C1002      C1006   1.533   1_556  S
C1002      C1008   1.537   1_556  S
C1002      C1007   1.532   1_556  S
C1002      C1197   1.474       .  S
C1003      C1011   1.380       .  A
C1004      C1015   1.371       .  A
C1005      C1019   1.366       .  A
C1006      C1009   1.373   1_554  A
C1007      C1013   1.374       .  A
C1008      C1016   1.378       .  A
C1009      N1010   1.358   1_556  A
C1009      H1022   1.082       .  S
C1011      H1012   1.081       .  S
C1013      H1023   1.082   1_554  S
N1014      C1015   1.355       .  A
N1014      C1189   1.434       .  S
C1015      H1021   1.081       .  S
C1016      N1017   1.364       .  A
C1016      H1018   1.080   1_554  S
N1017      C1186   1.437       .  S
C1019      H1020   1.083       .  S
C1024      C1026   1.536       .  S
C1024      C1028   1.532       .  S
C1024      C1027   1.538       .  S
C1024      C1198   1.474       .  S
C1025      C1029   1.523       .  S
C1025      C1031   1.536       .  S
C1025      C1030   1.526       .  S
C1025      C1200   1.474       .  S
C1026      C1034   1.379       .  A
C1026      C1029   1.391       .  A
C1027      C1038   1.379       .  A
C1027      C1030   1.395       .  A
C1028      C1042   1.373       .  A
C1028      C1031   1.394       .  A
C1029      C1032   1.367       .  A
C1030      C1036   1.368       .  A
C1031      C1039   1.378       .  A
C1032      N1033   1.354       .  A
C1032      H1045   1.083       .  S
N1033      C1034   1.364       .  A
N1033      C1182   1.436       .  S
C1034      H1035   1.081       .  S
C1036      N1037   1.353       .  A
C1036      H1046   1.081       .  S
N1037      C1038   1.363       .  A
N1037      C1177   1.433       .  S
C1038      H1044   1.082       .  S
C1039      N1040   1.365       .  A
C1039      H1041   1.081       .  S
N1040      C1042   1.357       .  A
N1040      C1173   1.441       .  S
C1042      H1043   1.082       .  S
C1047      O1049   1.261       .  A
C1047      C1193   1.476       .  S
Tb1048     O1270   2.372       .  S
Tb1048     O1471   2.365   1_545  S
Tb1048     O1454   2.345   1_545  S
Tb1048     O1059   2.312       .  S
Tb1048     O1052   2.341       .  S
Tb1048     O1069   2.367   1_545  S
O1049     Tb1053   2.371       .  S
O1050      C1061   1.257       .  A
O1050     Tb1453   2.331       .  S
C1051      O1056   1.264       .  A
C1051      O1072   1.271       .  A
C1051      C1162   1.471       .  S
Tb1053     O1450   2.346   1_545  S
Tb1053     O1056   2.332       .  S
Tb1053     O1463   2.367   1_545  S
Tb1053     O1065   2.328       .  S
O1054      C1460   1.264       .  A
O1054     Tb1448   2.354       .  S
O1055      C1058   1.264   1_455  A
O1057      C1067   1.272       .  A
C1058      O1071   1.267       .  A
C1058      C1190   1.471       .  S
C1060      O1454   1.261       .  A
C1060      O1069   1.263       .  A
C1060      C1565   1.476       .  S
C1061      O1063   1.259       .  A
C1061      C1170   1.473       .  S
O1063     Tb1453   2.376       .  S
O1065      C1066   1.271       .  A
C1066      C1093   1.456       .  S
C1067      C1092   1.443       .  S
C1068      O1470   1.259   1_554  A
C1068      C1185   1.470       .  S
O1070      C1468   1.261   1_556  A
O1070     Tb1248   2.358   1_556  S
O1071     Tb1448   2.346       .  S
C1073      O1088   1.258       .  A
C1073      O1075   1.258       .  A
C1073      C1181   1.470       .  S
Tb1074     O1496   2.356       .  S
Tb1074     O1497   2.366   1_545  S
Tb1074     O1480   2.359   1_545  S
Tb1074     O1090   2.316       .  S
Tb1074     O1085   2.325       .  S
Tb1074     O1078   2.355       .  S
Tb1074     O1095   2.355   1_545  S
O1075     Tb1079   2.363       .  S
O1076      C1087   1.258       .  A
O1076     Tb1479   2.343       .  S
C1077      O1082   1.268       .  A
C1077      O1098   1.265       .  A
C1077      C1149   1.472       .  S
O1078      C1094   1.262       .  A
Tb1079     O1476   2.345   1_545  S
Tb1079     O1083   2.324       .  S
Tb1079     O1088   2.345       .  S
Tb1079     O1082   2.345       .  S
Tb1079     O1489   2.382   1_545  S
Tb1079     O1091   2.332       .  S
O1080      C1486   1.259       .  A
O1080     Tb1474   2.347       .  S
O1081      C1084   1.261   1_455  A
O1083      C1093   1.270       .  A
C1084      O1097   1.270       .  A
C1084      C1178   1.468       .  S
C1086      O1480   1.261       .  A
C1086      O1095   1.263       .  A
C1086      C1554   1.477       .  S
C1087      O1089   1.260       .  A
C1087      C1158   1.476       .  S
O1089     Tb1479   2.374       .  S
O1091      C1092   1.271       .  A
C1094      O1496   1.261       .  A
C1094      C1174   1.474       .  S
O1096      C1494   1.261       .  A
O1096     Tb1474   2.364       .  S
O1097     Tb1474   2.349       .  S
C1099      C1101   1.541       .  S
C1099      C1103   1.531       .  S
C1099      C1102   1.538       .  S
C1100      C1104   1.517       .  S
C1100      C1106   1.536       .  S
C1100      C1105   1.527       .  S
C1100      C1148   1.472       .  S
C1101      C1109   1.385       .  A
C1101      C1104   1.392       .  A
C1102      C1113   1.380       .  A
C1102      C1105   1.395       .  A
C1103      C1117   1.371       .  A
C1103      C1106   1.393       .  A
C1104      C1107   1.360       .  A
C1105      C1111   1.369       .  A
C1106      C1114   1.380       .  A
C1107      N1108   1.351       .  A
C1107      H1120   1.083       .  S
N1108      C1109   1.365       .  A
N1108      C1169   1.432       .  S
C1109      H1110   1.081       .  S
C1111      N1112   1.352       .  A
C1111      H1121   1.079       .  S
N1112      C1113   1.364       .  A
N1112      C1161   1.435       .  S
C1113      H1119   1.082       .  S
C1114      N1115   1.366       .  A
C1114      H1116   1.081       .  S
N1115      C1117   1.356       .  A
N1115      C1166   1.441       .  S
C1117      H1118   1.083       .  S
C1122      C1124   1.540       .  S
C1122      C1126   1.523       .  S
C1122      C1125   1.529       .  S
C1122      C1147   1.471       .  S
C1123      C1127   1.528       .  S
C1123      C1129   1.540       .  S
C1123      C1128   1.534       .  S
C1123      C1146   1.471       .  S
C1124      C1132   1.384       .  A
C1124      C1127   1.394       .  A
C1125      C1136   1.371       .  A
C1125      C1128   1.393       .  A
C1126      C1140   1.366       .  A
C1126      C1129   1.391       .  A
C1127      C1130   1.367       .  A
C1128      C1134   1.378       .  A
C1129      C1137   1.385       .  A
C1130      N1131   1.354       .  A
C1130      H1143   1.083       .  S
N1131      C1132   1.365       .  A
N1131      C1157   1.436       .  S
C1132      H1133   1.082       .  S
C1134      N1135   1.361       .  A
C1134      H1144   1.082       .  S
N1135      C1136   1.354       .  A
N1135      C1150   1.434       .  S
C1136      H1142   1.079       .  S
C1137      N1138   1.366       .  A
C1137      H1139   1.081       .  S
N1138      C1140   1.353       .  A
N1138      C1153   1.438       .  S
C1140      H1141   1.083       .  S
C1145      C1146   1.208       .  T
C1147      C1148   1.208       .  T
C1149      C1150   1.340       .  D
C1149      H1151   1.086       .  S
C1150      H1152   1.087       .  S
C1153      C1154   1.342       .  D
C1153      H1155   1.088       .  S
C1154      C1486   1.476       .  S
C1154      H1556   1.085       .  S
H1156      C1554   1.084       .  S
C1157      C1158   1.343       .  D
C1157      H1159   1.088       .  S
C1158      H1160   1.085       .  S
C1161      C1162   1.336       .  D
C1161      H1163   1.087       .  S
C1162      H1164   1.087       .  S
C1165      C1460   1.474       .  S
C1165      C1166   1.342       .  D
C1165      H1167   1.084       .  S
C1166      H1168   1.088       .  S
C1169      C1170   1.341       .  D
C1169      H1171   1.088       .  S
C1170      H1172   1.085       .  S
C1173      C1174   1.344       .  D
C1173      H1175   1.088       .  S
C1174      H1176   1.084       .  S
C1177      C1178   1.337       .  D
C1177      H1179   1.088       .  S
C1178      H1180   1.086       .  S
C1181      C1182   1.341       .  D
C1181      H1183   1.084       .  S
C1182      H1184   1.088       .  S
C1185      C1186   1.342       .  D
C1186      H1188   1.088       .  S
C1189      C1190   1.340       .  D
C1189      H1191   1.087       .  S
C1193      C1194   1.345       .  D
C1193      H1195   1.085       .  S
C1197      C1198   1.209       .  T
C1199      C1200   1.209       .  T
C1201      C1203   1.536       .  S
C1201      C1205   1.523       .  S
C1201      C1204   1.529       .  S
C1201      C1399   1.470       .  S
C1202      C1206   1.530       .  S
C1202      C1208   1.541       .  S
C1202      C1207   1.533       .  S
C1202      C1397   1.476       .  S
C1203      C1211   1.381       .  A
C1203      C1406   1.395       .  A
C1204      C1215   1.371       .  A
C1204      C1407   1.393       .  A
C1205      C1219   1.367       .  A
C1205      C1408   1.392       .  A
C1206      C1403   1.392       .  A
C1206      C1209   1.369       .  A
C1207      C1404   1.393       .  A
C1207      C1213   1.375       .  A
C1208      C1405   1.393       .  A
C1208      C1216   1.384       .  A
C1209      N1210   1.356       .  A
C1209      H1222   1.083       .  S
N1210      C1411   1.363       .  A
N1210      C1594   1.437       .  S
C1211      N1410   1.364       .  A
C1211      H1212   1.081       .  S
C1213      N1414   1.361       .  A
C1213      H1223   1.082       .  S
N1214      C1413   1.360       .  A
N1214      C1215   1.355       .  A
N1214      C1389   1.432       .  S
C1215      H1221   1.081       .  S
C1216      N1217   1.366       .  A
C1216      H1218   1.081       .  S
N1217      C1419   1.355       .  A
N1217      C1386   1.440       .  S
C1219      N1417   1.354       .  A
C1219      H1220   1.083       .  S
C1224      C1226   1.543       .  S
C1224      C1228   1.534       .  S
C1224      C1227   1.539       .  S
C1224      C1398   1.475       .  S
C1225      C1229   1.523       .  S
C1225      C1231   1.531       .  S
C1225      C1230   1.522       .  S
C1225      C1400   1.470       .  S
C1226      C1234   1.386       .  A
C1226      C1229   1.392       .  A
C1227      C1238   1.379       .  A
C1227      C1230   1.394       .  A
C1228      C1242   1.373       .  A
C1228      C1231   1.392       .  A
C1229      C1232   1.365       .  A
C1230      C1236   1.366       .  A
C1231      C1239   1.377       .  A
C1232      N1233   1.353       .  A
C1232      H1245   1.083       .  S
N1233      C1234   1.367       .  A
N1233      C1382   1.439       .  S
C1234      H1235   1.081       .  S
C1236      N1237   1.351       .  A
C1236      H1246   1.081       .  S
N1237      C1238   1.362       .  A
N1237      C1377   1.430       .  S
C1238      H1244   1.082       .  S
C1239      N1240   1.364       .  A
C1239      H1241   1.081       .  S
N1240      C1242   1.358       .  A
N1240      C1373   1.441       .  S
C1242      H1243   1.082       .  S
C1247      O1462   1.260       .  A
C1247      O1249   1.265       .  A
C1247      C1393   1.475       .  S
Tb1248     O1464   2.322   1_554  S
Tb1248     O1259   2.323       .  S
Tb1248     O1252   2.345       .  S
Tb1248     O1269   2.355       .  S
O1249     Tb1253   2.367       .  S
O1250      C1261   1.264       .  A
C1251      O1256   1.268       .  A
C1251      O1272   1.263       .  A
C1251      C1362   1.463       .  S
O1252      C1468   1.264       .  A
Tb1253     O1457   2.311   1_554  S
Tb1253     O1462   2.332       .  S
Tb1253     O1256   2.347       .  S
Tb1253     O1265   2.343       .  S
O1255      C1258   1.266       .  A
O1257      C1267   1.268       .  A
O1257     Tb1453   2.313       .  S
C1258      O1271   1.265       .  A
C1258      C1390   1.469       .  S
C1260      O1269   1.261       .  A
C1261      O1263   1.259   1_554  A
C1261      C1370   1.474       .  S
O1262      C1447   1.257       .  A
O1262     Tb1453   2.341       .  S
O1264     Tb1448   2.317       .  S
O1265      C1266   1.269       .  A
C1266      C1293   1.443       .  S
C1267      C1292   1.439       .  S
C1268      O1452   1.264       .  A
C1268      C1385   1.476       .  S
C1273      O1288   1.258       .  A
C1273      O1275   1.258       .  A
C1273      C1381   1.477       .  S
Tb1274     O1290   2.319       .  S
Tb1274     O1285   2.311       .  S
Tb1274     O1278   2.352       .  S
Tb1274     O1295   2.361       .  S
O1275     Tb1279   2.373       .  S
O1276      C1287   1.259       .  A
C1277      O1282   1.264       .  A
C1277      O1298   1.268       .  A
C1277      C1349   1.468       .  S
O1278      C1294   1.260       .  A
Tb1279     O1283   2.326       .  S
Tb1279     O1288   2.351       .  S
Tb1279     O1282   2.337       .  S
Tb1279     O1291   2.320       .  S
O1281      C1284   1.264       .  A
O1283      C1293   1.269       .  A
C1284      O1297   1.263       .  A
C1284      C1378   1.468       .  S
C1286      O1295   1.260       .  A
C1287      O1289   1.263       .  A
C1287      C1358   1.473       .  S
O1291      C1292   1.270       .  A
C1294      C1374   1.474       .  S
C1299      C1301   1.528   1_556  S
C1299      C1303   1.521   1_556  S
C1299      C1302   1.524   1_556  S
C1299      C1545   1.467       .  S
C1300      C1304   1.541       .  S
C1300      C1306   1.545       .  S
C1300      C1305   1.531       .  S
C1300      C1348   1.474       .  S
C1301      C1309   1.375       .  A
C1301      C1304   1.392       .  A
C1302      C1313   1.370   1_554  A
C1302      C1305   1.391       .  A
C1303      C1317   1.361       .  A
C1303      C1306   1.393       .  A
C1304      C1307   1.377       .  A
C1305      C1311   1.373       .  A
C1306      C1314   1.388       .  A
C1307      N1308   1.359       .  A
C1307      H1320   1.075       .  S
N1308      C1309   1.363       .  A
N1308      C1369   1.444       .  S
C1309      H1310   1.081   1_554  S
C1311      N1312   1.360       .  A
C1311      H1321   1.082       .  S
N1312      C1313   1.354   1_554  A
N1312      C1361   1.431       .  S
C1313      H1319   1.081       .  S
C1314      N1315   1.366       .  A
C1314      H1316   1.082       .  S
N1315      C1317   1.352       .  A
N1315      C1366   1.436       .  S
C1317      H1318   1.082   1_554  S
C1322      C1324   1.525       .  S
C1322      C1326   1.517       .  S
C1322      C1325   1.528       .  S
C1322      C1347   1.475       .  S
C1323      C1327   1.539       .  S
C1323      C1329   1.546       .  S
C1323      C1328   1.536       .  S
C1323      C1346   1.484       .  S
C1324      C1332   1.365       .  A
C1324      C1327   1.394       .  A
C1325      C1336   1.372       .  A
C1325      C1328   1.396       .  A
C1326      C1340   1.364       .  A
C1326      C1329   1.394       .  A
C1327      C1330   1.383       .  A
C1328      C1334   1.373       .  A
C1329      C1337   1.384       .  A
C1330      N1331   1.365       .  A
C1330      H1343   1.081       .  S
N1331      C1332   1.352       .  A
N1331      C1357   1.437       .  S
C1332      H1333   1.075       .  S
C1334      N1335   1.357       .  A
C1334      H1344   1.082       .  S
N1335      C1336   1.361       .  A
N1335      C1350   1.434       .  S
C1336      H1342   1.082       .  S
C1337      N1338   1.367       .  A
C1337      H1339   1.081       .  S
N1338      C1340   1.351       .  A
N1338      C1353   1.436       .  S
C1340      H1341   1.083       .  S
C1345      C1499   1.484       .  S
C1345      C1346   1.215       .  T
C1347      C1348   1.209       .  T
C1349      C1350   1.340       .  D
C1349      H1351   1.086       .  S
C1350      H1352   1.087       .  S
C1353      C1354   1.338       .  D
C1353      H1355   1.088       .  S
C1357      C1358   1.340       .  D
C1357      H1359   1.088       .  S
C1358      H1360   1.085       .  S
C1361      C1362   1.338       .  D
C1361      H1363   1.088   1_554  S
C1362      H1364   1.086       .  S
C1365      C1366   1.343       .  D
C1365      H1367   1.085       .  S
C1366      H1368   1.088   1_554  S
C1369      C1370   1.344       .  D
C1369      H1371   1.087       .  S
C1370      H1372   1.083   1_554  S
C1373      C1374   1.344       .  D
C1373      H1375   1.088       .  S
C1374      H1376   1.084       .  S
C1377      C1378   1.337       .  D
C1377      H1379   1.087       .  S
C1378      H1380   1.086       .  S
C1381      C1382   1.342       .  D
C1381      H1383   1.085       .  S
C1382      H1384   1.088       .  S
C1385      C1386   1.342       .  D
C1385      H1587   1.085       .  S
C1386      H1388   1.088       .  S
H1387      C1585   1.085   1_556  S
C1389      C1390   1.341       .  D
C1389      H1391   1.087       .  S
C1390      H1592   1.086   1_554  S
H1392      C1590   1.086       .  S
C1393      C1394   1.345       .  D
C1393      H1395   1.084       .  S
C1394      N1410   1.438       .  S
C1394      H1596   1.088   1_554  S
H1396      C1594   1.088       .  S
C1397      C1398   1.210       .  T
C1399      C1400   1.207       .  T
C1401      C1403   1.533       .  S
C1401      C1405   1.527       .  S
C1401      C1404   1.530       .  S
C1401      C1599   1.471       .  S
C1402      C1406   1.532   1_556  S
C1402      C1408   1.539   1_556  S
C1402      C1407   1.531   1_556  S
C1402      C1597   1.476       .  S
C1403      C1411   1.379       .  A
C1404      C1415   1.373       .  A
C1405      C1419   1.368       .  A
C1406      C1409   1.369   1_554  A
C1407      C1413   1.375       .  A
C1408      C1416   1.382       .  A
C1409      N1410   1.357   1_556  A
C1409      H1422   1.082       .  S
C1411      H1412   1.082       .  S
C1413      H1423   1.082   1_554  S
N1414      C1415   1.356       .  A
N1414      C1589   1.436       .  S
C1415      H1421   1.080       .  S
C1416      N1417   1.365       .  A
C1416      H1418   1.081   1_554  S
N1417      C1586   1.437       .  S
C1419      H1420   1.083       .  S
C1424      C1426   1.539       .  S
C1424      C1428   1.535       .  S
C1424      C1427   1.539       .  S
C1424      C1598   1.476       .  S
C1425      C1429   1.524       .  S
C1425      C1431   1.533       .  S
C1425      C1430   1.526       .  S
C1425      C1600   1.471       .  S
C1426      C1434   1.382       .  A
C1426      C1429   1.392       .  A
C1427      C1438   1.382       .  A
C1427      C1430   1.394       .  A
C1428      C1442   1.372       .  A
C1428      C1431   1.393       .  A
C1429      C1432   1.367       .  A
C1430      C1436   1.368       .  A
C1431      C1439   1.379       .  A
C1432      N1433   1.355       .  A
C1432      H1445   1.083       .  S
N1433      C1434   1.364       .  A
N1433      C1582   1.438       .  S
C1434      H1435   1.081       .  S
C1436      N1437   1.353       .  A
C1436      H1446   1.080       .  S
N1437      C1438   1.364       .  A
N1437      C1577   1.436       .  S
C1438      H1444   1.082       .  S
C1439      N1440   1.364       .  A
C1439      H1441   1.081       .  S
N1440      C1442   1.358       .  A
N1440      C1573   1.440       .  S
C1442      H1443   1.083       .  S
C1447      O1449   1.261       .  A
C1447      C1593   1.475       .  S
Tb1448     O1459   2.322       .  S
Tb1448     O1452   2.347       .  S
Tb1448     O1469   2.352       .  S
O1449     Tb1453   2.375       .  S
O1450      C1461   1.259       .  A
C1451      O1456   1.265       .  A
C1451      O1472   1.270       .  A
C1451      C1562   1.474       .  S
Tb1453     O1456   2.340       .  S
Tb1453     O1465   2.323       .  S
O1455      C1458   1.259       .  A
O1457      C1467   1.266       .  A
C1458      O1471   1.271       .  A
C1458      C1590   1.468       .  S
C1460      O1469   1.261       .  A
C1461      O1463   1.258       .  A
C1461      C1570   1.473       .  S
O1465      C1466   1.269       .  A
C1466      C1493   1.451       .  S
C1467      C1492   1.445       .  S
C1468      C1585   1.474       .  S
C1473      O1488   1.257       .  A
C1473      O1475   1.258       .  A
C1473      C1581   1.475       .  S
Tb1474     O1490   2.327       .  S
Tb1474     O1485   2.318       .  S
Tb1474     O1478   2.346       .  S
Tb1474     O1495   2.370       .  S
O1475     Tb1479   2.373       .  S
O1476      C1487   1.259       .  A
C1477      O1482   1.266       .  A
C1477      O1498   1.273       .  A
C1477      C1549   1.482       .  S
O1478      C1494   1.260       .  A
Tb1479     O1483   2.326       .  S
Tb1479     O1488   2.347       .  S
Tb1479     O1482   2.342       .  S
Tb1479     O1491   2.337       .  S
O1481      C1484   1.262   1_455  A
O1483      C1493   1.270       .  A
C1484      O1497   1.272       .  A
C1484      C1578   1.474       .  S
C1486      O1495   1.258       .  A
C1487      O1489   1.262       .  A
C1487      C1558   1.483       .  S
O1491      C1492   1.272       .  A
C1494      C1574   1.474       .  S
C1499      C1501   1.541       .  S
C1499      C1503   1.536       .  S
C1499      C1502   1.543       .  S
C1500      C1504   1.522       .  S
C1500      C1506   1.533       .  S
C1500      C1505   1.526       .  S
C1500      C1548   1.474       .  S
C1501      C1509   1.384       .  A
C1501      C1504   1.392       .  A
C1502      C1513   1.381       .  A
C1502      C1505   1.396       .  A
C1503      C1517   1.373       .  A
C1503      C1506   1.394       .  A
C1504      C1507   1.365       .  A
C1505      C1511   1.370       .  A
C1506      C1514   1.379       .  A
C1507      N1508   1.353       .  A
C1507      H1520   1.082       .  S
N1508      C1509   1.365       .  A
N1508      C1569   1.437       .  S
C1509      H1510   1.082       .  S
C1511      N1512   1.354       .  A
C1511      H1521   1.082       .  S
N1512      C1513   1.365       .  A
N1512      C1561   1.437       .  S
C1513      H1519   1.082       .  S
C1514      N1515   1.363       .  A
C1514      H1516   1.081       .  S
N1515      C1517   1.359       .  A
N1515      C1566   1.441       .  S
C1517      H1518   1.083       .  S
C1522      C1524   1.549       .  S
C1522      C1526   1.538       .  S
C1522      C1525   1.545       .  S
C1522      C1547   1.472       .  S
C1523      C1527   1.522       .  S
C1523      C1529   1.530       .  S
C1523      C1528   1.526       .  S
C1523      C1546   1.467       .  S
C1524      C1532   1.390       .  A
C1524      C1527   1.392       .  A
C1525      C1536   1.385       .  A
C1525      C1528   1.392       .  A
C1526      C1540   1.380       .  A
C1526      C1529   1.390       .  A
C1527      C1530   1.366       .  A
C1528      C1534   1.372       .  A
C1529      C1537   1.374       .  A
C1530      N1531   1.353       .  A
C1530      H1543   1.083       .  S
N1531      C1532   1.367       .  A
N1531      C1557   1.440       .  S
C1532      H1533   1.082       .  S
C1534      N1535   1.355       .  A
C1534      H1544   1.081       .  S
N1535      C1536   1.365       .  A
N1535      C1550   1.441       .  S
C1536      H1542   1.081       .  S
C1537      N1538   1.359       .  A
C1537      H1539   1.081       .  S
N1538      C1540   1.364       .  A
N1538      C1553   1.443       .  S
C1540      H1541   1.081       .  S
C1545      C1546   1.204       .  T
C1547      C1548   1.208       .  T
C1549      C1550   1.343       .  D
C1549      H1551   1.086       .  S
C1550      H1552   1.087       .  S
C1553      C1554   1.345       .  D
C1553      H1555   1.087       .  S
C1557      C1558   1.345       .  D
C1557      H1559   1.088       .  S
C1558      H1560   1.085       .  S
C1561      C1562   1.339       .  D
C1561      H1563   1.087       .  S
C1562      H1564   1.086       .  S
C1565      C1566   1.346       .  D
C1565      H1567   1.084       .  S
C1566      H1568   1.088       .  S
C1569      C1570   1.341       .  D
C1569      H1571   1.088       .  S
C1570      H1572   1.085       .  S
C1573      C1574   1.345       .  D
C1573      H1575   1.088       .  S
C1574      H1576   1.084       .  S
C1577      C1578   1.338       .  D
C1577      H1579   1.087       .  S
C1578      H1580   1.086       .  S
C1581      C1582   1.343       .  D
C1581      H1583   1.085       .  S
C1582      H1584   1.088       .  S
C1585      C1586   1.341       .  D
C1586      H1588   1.088       .  S
C1589      C1590   1.339       .  D
C1589      H1591   1.087       .  S
C1593      C1594   1.345       .  D
C1593      H1595   1.084       .  S
C1597      C1598   1.210       .  T
C1599      C1600   1.207       .  T
